<?xml version="1.0" encoding="UTF-8"?>

<!-- generated on 2026-03-18 00:13:03 by Eclipse SUMO netconvert Version 1.24.0
<netconvertConfiguration xmlns:xsi="http://www.w3.org/2001/XMLSchema-instance" xsi:noNamespaceSchemaLocation="http://sumo.dlr.de/xsd/netconvertConfiguration.xsd">

    <input>
        <osm-files value="map.osm"/>
    </input>

    <output>
        <output-file value="map.net.xml"/>
    </output>

    <projection>
        <proj.utm value="true"/>
    </projection>

    <report>
        <no-warnings value="true"/>
    </report>

</netconvertConfiguration>
-->

<net version="1.20" junctionCornerDetail="5" limitTurnSpeed="5.50" xmlns:xsi="http://www.w3.org/2001/XMLSchema-instance" xsi:noNamespaceSchemaLocation="http://sumo.dlr.de/xsd/net_file.xsd">

    <location netOffset="-719257.86,-939950.39" convBoundary="0.00,0.00,3100.01,3029.42" origBoundary="76.977119,8.478500,77.030880,8.576337" projParameter="+proj=utm +zone=43 +ellps=WGS84 +datum=WGS84 +units=m +no_defs"/>

    <type id="highway.living_street" priority="2" numLanes="1" speed="2.78" disallow="tram rail_urban rail rail_electric rail_fast ship container cable_car subway aircraft wheelchair scooter drone" oneway="0"/>
    <type id="highway.residential" priority="3" numLanes="1" speed="13.89" disallow="tram rail_urban rail rail_electric rail_fast ship container cable_car subway aircraft wheelchair scooter drone" oneway="0"/>
    <type id="highway.secondary" priority="11" numLanes="1" speed="27.78" disallow="tram rail_urban rail rail_electric rail_fast ship container cable_car subway aircraft wheelchair scooter drone" oneway="0"/>
    <type id="highway.service" priority="1" numLanes="1" speed="5.56" allow="pedestrian delivery bicycle" oneway="0"/>
    <type id="highway.tertiary" priority="10" numLanes="1" speed="22.22" disallow="tram rail_urban rail rail_electric rail_fast ship container cable_car subway aircraft wheelchair scooter drone" oneway="0"/>
    <type id="highway.unclassified" priority="4" numLanes="1" speed="13.89" disallow="tram rail_urban rail rail_electric rail_fast ship container cable_car subway aircraft wheelchair scooter drone" oneway="0"/>

    <edge id=":10130220376_0" function="internal">
        <lane id=":10130220376_0_0" index="0" disallow="tram rail_urban rail rail_electric rail_fast ship container cable_car subway aircraft wheelchair scooter drone" speed="3.65" length="4.67" shape="1549.45,719.06 1548.80,717.77 1548.85,716.88 1549.59,716.38 1551.03,716.28"/>
    </edge>
    <edge id=":10130220377_0" function="internal">
        <lane id=":10130220377_0_0" index="0" disallow="tram rail_urban rail rail_electric rail_fast ship container cable_car subway aircraft wheelchair scooter drone" speed="13.89" length="14.63" shape="1383.00,828.03 1368.45,829.52"/>
    </edge>
    <edge id=":10130220377_1" function="internal">
        <lane id=":10130220377_1_0" index="0" disallow="tram rail_urban rail rail_electric rail_fast ship container cable_car subway aircraft wheelchair scooter drone" speed="7.61" length="4.37" shape="1383.00,828.03 1378.63,827.85"/>
    </edge>
    <edge id=":10130220377_2" function="internal">
        <lane id=":10130220377_2_0" index="0" disallow="tram rail_urban rail rail_electric rail_fast ship container cable_car subway aircraft wheelchair scooter drone" speed="3.65" length="1.44" shape="1383.00,828.03 1381.73,827.36"/>
    </edge>
    <edge id=":10130220377_9" function="internal">
        <lane id=":10130220377_9_0" index="0" disallow="tram rail_urban rail rail_electric rail_fast ship container cable_car subway aircraft wheelchair scooter drone" speed="7.61" length="10.94" shape="1378.63,827.85 1375.75,826.28 1374.36,823.31 1374.44,818.94"/>
    </edge>
    <edge id=":10130220377_10" function="internal">
        <lane id=":10130220377_10_0" index="0" disallow="tram rail_urban rail rail_electric rail_fast ship container cable_car subway aircraft wheelchair scooter drone" speed="3.65" length="3.23" shape="1381.73,827.36 1381.25,826.60 1381.56,825.77 1382.68,824.85"/>
    </edge>
    <edge id=":10130220377_3" function="internal">
        <lane id=":10130220377_3_0" index="0" disallow="tram rail_urban rail rail_electric rail_fast ship container cable_car subway aircraft wheelchair scooter drone" speed="6.01" length="9.08" shape="1377.60,819.46 1377.55,822.05 1378.38,823.81 1380.09,824.74 1382.68,824.85"/>
    </edge>
    <edge id=":10130220377_4" function="internal">
        <lane id=":10130220377_4_0" index="0" disallow="tram rail_urban rail rail_electric rail_fast ship container cable_car subway aircraft wheelchair scooter drone" speed="9.05" length="14.74" shape="1377.60,819.46 1376.46,823.57 1374.55,826.61 1371.88,828.60 1368.45,829.52"/>
    </edge>
    <edge id=":10130220377_5" function="internal">
        <lane id=":10130220377_5_0" index="0" disallow="tram rail_urban rail rail_electric rail_fast ship container cable_car subway aircraft wheelchair scooter drone" speed="3.65" length="4.67" shape="1377.60,819.46 1376.62,820.51 1375.76,820.78 1375.04,820.25 1374.44,818.94"/>
    </edge>
    <edge id=":10130220377_6" function="internal">
        <lane id=":10130220377_6_0" index="0" disallow="tram rail_urban rail rail_electric rail_fast ship container cable_car subway aircraft wheelchair scooter drone" speed="7.73" length="10.53" shape="1368.12,826.33 1370.47,825.67 1372.30,824.22 1373.63,821.98 1374.44,818.94"/>
    </edge>
    <edge id=":10130220377_7" function="internal">
        <lane id=":10130220377_7_0" index="0" disallow="tram rail_urban rail rail_electric rail_fast ship container cable_car subway aircraft wheelchair scooter drone" speed="13.89" length="14.63" shape="1368.12,826.33 1382.68,824.85"/>
    </edge>
    <edge id=":10130220377_8" function="internal">
        <lane id=":10130220377_8_0" index="0" disallow="tram rail_urban rail rail_electric rail_fast ship container cable_car subway aircraft wheelchair scooter drone" speed="3.65" length="1.44" shape="1368.12,826.33 1369.40,827.01"/>
    </edge>
    <edge id=":10130220377_11" function="internal">
        <lane id=":10130220377_11_0" index="0" disallow="tram rail_urban rail rail_electric rail_fast ship container cable_car subway aircraft wheelchair scooter drone" speed="3.65" length="3.23" shape="1369.40,827.01 1369.88,827.76 1369.56,828.60 1368.45,829.52"/>
    </edge>
    <edge id=":10130220378_0" function="internal">
        <lane id=":10130220378_0_0" index="0" disallow="tram rail_urban rail rail_electric rail_fast ship container cable_car subway aircraft wheelchair scooter drone" speed="6.07" length="8.70" shape="1384.66,741.74 1387.08,742.09 1388.68,743.13 1389.45,744.87 1389.41,747.32"/>
    </edge>
    <edge id=":10130220378_1" function="internal">
        <lane id=":10130220378_1_0" index="0" disallow="tram rail_urban rail rail_electric rail_fast ship container cable_car subway aircraft wheelchair scooter drone" speed="3.90" length="2.90" shape="1386.25,746.80 1386.27,745.99 1386.01,745.41 1385.47,745.06 1384.67,744.94"/>
    </edge>
    <edge id=":11160696491_0" function="internal">
        <lane id=":11160696491_0_0" index="0" disallow="tram rail_urban rail rail_electric rail_fast ship container cable_car subway aircraft wheelchair scooter drone" speed="3.65" length="4.67" shape="1995.02,919.85 1995.67,921.14 1995.62,922.03 1994.87,922.53 1993.44,922.63"/>
    </edge>
    <edge id=":11160712452_0" function="internal">
        <lane id=":11160712452_0_0" index="0" disallow="tram rail_urban rail rail_electric rail_fast ship container cable_car subway aircraft wheelchair scooter drone" speed="13.89" length="14.43" shape="1768.09,1215.17 1753.68,1215.88"/>
    </edge>
    <edge id=":11160712452_1" function="internal">
        <lane id=":11160712452_1_0" index="0" disallow="tram rail_urban rail rail_electric rail_fast ship container cable_car subway aircraft wheelchair scooter drone" speed="7.70" length="4.22" shape="1768.09,1215.17 1763.89,1214.73"/>
    </edge>
    <edge id=":11160712452_2" function="internal">
        <lane id=":11160712452_2_0" index="0" disallow="tram rail_urban rail rail_electric rail_fast ship container cable_car subway aircraft wheelchair scooter drone" speed="3.65" length="1.44" shape="1768.09,1215.17 1766.86,1214.42"/>
    </edge>
    <edge id=":11160712452_9" function="internal">
        <lane id=":11160712452_9_0" index="0" disallow="tram rail_urban rail rail_electric rail_fast ship container cable_car subway aircraft wheelchair scooter drone" speed="7.70" length="10.75" shape="1763.89,1214.73 1761.11,1213.03 1759.73,1210.07 1759.77,1205.85"/>
    </edge>
    <edge id=":11160712452_10" function="internal">
        <lane id=":11160712452_10_0" index="0" disallow="tram rail_urban rail rail_electric rail_fast ship container cable_car subway aircraft wheelchair scooter drone" speed="3.65" length="3.23" shape="1766.86,1214.42 1766.43,1213.63 1766.80,1212.82 1767.97,1211.97"/>
    </edge>
    <edge id=":11160712452_3" function="internal">
        <lane id=":11160712452_3_0" index="0" disallow="tram rail_urban rail rail_electric rail_fast ship container cable_car subway aircraft wheelchair scooter drone" speed="6.13" length="9.06" shape="1762.94,1206.33 1762.91,1208.89 1763.74,1210.68 1765.43,1211.71 1767.97,1211.97"/>
    </edge>
    <edge id=":11160712452_4" function="internal">
        <lane id=":11160712452_4_0" index="0" disallow="tram rail_urban rail rail_electric rail_fast ship container cable_car subway aircraft wheelchair scooter drone" speed="8.79" length="14.53" shape="1762.94,1206.33 1761.83,1210.33 1759.93,1213.25 1757.21,1215.10 1753.68,1215.88"/>
    </edge>
    <edge id=":11160712452_5" function="internal">
        <lane id=":11160712452_5_0" index="0" disallow="tram rail_urban rail rail_electric rail_fast ship container cable_car subway aircraft wheelchair scooter drone" speed="3.65" length="4.67" shape="1762.94,1206.33 1761.96,1207.40 1761.11,1207.67 1760.38,1207.15 1759.77,1205.85"/>
    </edge>
    <edge id=":11160712452_6" function="internal">
        <lane id=":11160712452_6_0" index="0" disallow="tram rail_urban rail rail_electric rail_fast ship container cable_car subway aircraft wheelchair scooter drone" speed="7.44" length="10.14" shape="1753.49,1212.68 1755.86,1212.14 1757.70,1210.81 1759.00,1208.72 1759.77,1205.85"/>
    </edge>
    <edge id=":11160712452_7" function="internal">
        <lane id=":11160712452_7_0" index="0" disallow="tram rail_urban rail rail_electric rail_fast ship container cable_car subway aircraft wheelchair scooter drone" speed="13.89" length="14.50" shape="1753.49,1212.68 1767.97,1211.97"/>
    </edge>
    <edge id=":11160712452_8" function="internal">
        <lane id=":11160712452_8_0" index="0" disallow="tram rail_urban rail rail_electric rail_fast ship container cable_car subway aircraft wheelchair scooter drone" speed="3.65" length="1.44" shape="1753.49,1212.68 1754.74,1213.41"/>
    </edge>
    <edge id=":11160712452_11" function="internal">
        <lane id=":11160712452_11_0" index="0" disallow="tram rail_urban rail rail_electric rail_fast ship container cable_car subway aircraft wheelchair scooter drone" speed="3.65" length="3.23" shape="1754.74,1213.41 1755.18,1214.18 1754.83,1215.01 1753.68,1215.88"/>
    </edge>
    <edge id=":11187592865_0" function="internal">
        <lane id=":11187592865_0_0" index="0" disallow="tram rail_urban rail rail_electric rail_fast ship container cable_car subway aircraft wheelchair scooter drone" speed="27.78" length="13.06" shape="651.46,843.20 648.78,841.03 646.28,839.22 643.66,837.59 640.63,835.95"/>
    </edge>
    <edge id=":11187592865_1" function="internal">
        <lane id=":11187592865_1_0" index="0" disallow="tram rail_urban rail rail_electric rail_fast ship container cable_car subway aircraft wheelchair scooter drone" speed="8.01" length="3.78" shape="651.46,843.20 648.93,840.38"/>
    </edge>
    <edge id=":11187592865_2" function="internal">
        <lane id=":11187592865_2_0" index="0" disallow="tram rail_urban rail rail_electric rail_fast ship container cable_car subway aircraft wheelchair scooter drone" speed="3.65" length="1.44" shape="651.46,843.20 651.05,841.81"/>
    </edge>
    <edge id=":11187592865_9" function="internal">
        <lane id=":11187592865_9_0" index="0" disallow="tram rail_urban rail rail_electric rail_fast ship container cable_car subway aircraft wheelchair scooter drone" speed="8.01" length="10.08" shape="648.93,840.38 647.88,837.42 648.30,834.30 650.19,831.03"/>
    </edge>
    <edge id=":11187592865_10" function="internal">
        <lane id=":11187592865_10_0" index="0" disallow="tram rail_urban rail rail_electric rail_fast ship container cable_car subway aircraft wheelchair scooter drone" speed="3.65" length="3.23" shape="651.05,841.81 651.26,840.94 652.08,840.59 653.52,840.75"/>
    </edge>
    <edge id=":11187592865_3" function="internal">
        <lane id=":11187592865_3_0" index="0" disallow="tram rail_urban rail rail_electric rail_fast ship container cable_car subway aircraft wheelchair scooter drone" speed="6.51" length="8.82" shape="652.71,833.00 651.51,835.08 651.24,837.07 651.91,838.96 653.52,840.75"/>
    </edge>
    <edge id=":11187592865_4" function="internal">
        <lane id=":11187592865_4_0" index="0" disallow="tram rail_urban rail rail_electric rail_fast ship container cable_car subway aircraft wheelchair scooter drone" speed="8.47" length="13.66" shape="652.71,833.00 650.04,835.63 647.13,837.00 644.00,837.11 640.63,835.95"/>
    </edge>
    <edge id=":11187592865_5" function="internal">
        <lane id=":11187592865_5_0" index="0" disallow="tram rail_urban rail rail_electric rail_fast ship container cable_car subway aircraft wheelchair scooter drone" speed="2.78" length="4.67" shape="652.71,833.00 651.34,833.45 650.47,833.27 650.08,832.46 650.19,831.03"/>
    </edge>
    <edge id=":11187592865_6" function="internal">
        <lane id=":11187592865_6_0" index="0" disallow="tram rail_urban rail rail_electric rail_fast ship container cable_car subway aircraft wheelchair scooter drone" speed="7.05" length="9.19" shape="642.09,833.11 644.33,833.86 646.42,833.77 648.38,832.82 650.19,831.03"/>
    </edge>
    <edge id=":11187592865_7" function="internal">
        <lane id=":11187592865_7_0" index="0" disallow="tram rail_urban rail rail_electric rail_fast ship container cable_car subway aircraft wheelchair scooter drone" speed="27.78" length="13.78" shape="642.09,833.11 645.21,834.81 648.03,836.58 650.74,838.52 653.52,840.75"/>
    </edge>
    <edge id=":11187592865_8" function="internal">
        <lane id=":11187592865_8_0" index="0" disallow="tram rail_urban rail rail_electric rail_fast ship container cable_car subway aircraft wheelchair scooter drone" speed="3.65" length="1.44" shape="642.09,833.11 642.79,834.36"/>
    </edge>
    <edge id=":11187592865_11" function="internal">
        <lane id=":11187592865_11_0" index="0" disallow="tram rail_urban rail rail_electric rail_fast ship container cable_car subway aircraft wheelchair scooter drone" speed="3.65" length="3.23" shape="642.79,834.36 642.78,835.26 642.06,835.79 640.63,835.95"/>
    </edge>
    <edge id=":11187592866_0" function="internal">
        <lane id=":11187592866_0_0" index="0" disallow="tram rail_urban rail rail_electric rail_fast ship container cable_car subway aircraft wheelchair scooter drone" speed="2.78" length="4.67" shape="662.58,815.25 663.95,814.80 664.82,814.98 665.21,815.79 665.09,817.23"/>
    </edge>
    <edge id=":11187715047_0" function="internal">
        <lane id=":11187715047_0_0" index="0" disallow="tram rail_urban rail rail_electric rail_fast ship container cable_car subway aircraft wheelchair scooter drone" speed="3.65" length="4.67" shape="2104.90,767.29 2105.59,768.55 2105.58,769.45 2104.85,769.97 2103.42,770.12"/>
    </edge>
    <edge id=":11187715054_0" function="internal">
        <lane id=":11187715054_0_0" index="0" disallow="tram rail_urban rail rail_electric rail_fast ship container cable_car subway aircraft wheelchair scooter drone" speed="7.17" length="9.87" shape="1908.15,826.77 1905.38,826.06 1903.02,826.22 1901.07,827.25 1899.53,829.14"/>
    </edge>
    <edge id=":11187715054_1" function="internal">
        <lane id=":11187715054_1_0" index="0" disallow="tram rail_urban rail rail_electric rail_fast ship container cable_car subway aircraft wheelchair scooter drone" speed="7.75" length="14.82" shape="1908.15,826.77 1904.52,824.74 1902.62,822.10 1902.43,818.85 1903.97,814.99"/>
    </edge>
    <edge id=":11187715054_2" function="internal">
        <lane id=":11187715054_2_0" index="0" disallow="tram rail_urban rail rail_electric rail_fast ship container cable_car subway aircraft wheelchair scooter drone" speed="3.65" length="4.67" shape="1908.15,826.77 1907.31,825.59 1907.23,824.70 1907.89,824.10 1909.29,823.78"/>
    </edge>
    <edge id=":11187715054_3" function="internal">
        <lane id=":11187715054_3_0" index="0" disallow="tram rail_urban rail rail_electric rail_fast ship container cable_car subway aircraft wheelchair scooter drone" speed="6.20" length="9.05" shape="1906.74,816.59 1905.80,818.95 1905.92,820.93 1907.08,822.54 1909.29,823.78"/>
    </edge>
    <edge id=":11187715054_4" function="internal">
        <lane id=":11187715054_4_0" index="0" disallow="tram rail_urban rail rail_electric rail_fast ship container cable_car subway aircraft wheelchair scooter drone" speed="13.89" length="14.48" shape="1906.74,816.59 1899.53,829.14"/>
    </edge>
    <edge id=":11187715054_5" function="internal">
        <lane id=":11187715054_5_0" index="0" disallow="tram rail_urban rail rail_electric rail_fast ship container cable_car subway aircraft wheelchair scooter drone" speed="3.65" length="1.44" shape="1906.74,816.59 1905.45,817.23"/>
    </edge>
    <edge id=":11187715054_9" function="internal">
        <lane id=":11187715054_9_0" index="0" disallow="tram rail_urban rail rail_electric rail_fast ship container cable_car subway aircraft wheelchair scooter drone" speed="3.65" length="3.23" shape="1905.45,817.23 1904.56,817.18 1904.06,816.43 1903.97,814.99"/>
    </edge>
    <edge id=":11187715054_6" function="internal">
        <lane id=":11187715054_6_0" index="0" disallow="tram rail_urban rail rail_electric rail_fast ship container cable_car subway aircraft wheelchair scooter drone" speed="13.89" length="14.48" shape="1896.75,827.55 1903.97,814.99"/>
    </edge>
    <edge id=":11187715054_7" function="internal">
        <lane id=":11187715054_7_0" index="0" disallow="tram rail_urban rail rail_electric rail_fast ship container cable_car subway aircraft wheelchair scooter drone" speed="8.56" length="3.84" shape="1896.75,827.55 1899.05,824.68 1899.19,824.60"/>
    </edge>
    <edge id=":11187715054_8" function="internal">
        <lane id=":11187715054_8_0" index="0" disallow="tram rail_urban rail rail_electric rail_fast ship container cable_car subway aircraft wheelchair scooter drone" speed="3.65" length="1.44" shape="1896.75,827.55 1898.04,826.91"/>
    </edge>
    <edge id=":11187715054_10" function="internal">
        <lane id=":11187715054_10_0" index="0" disallow="tram rail_urban rail rail_electric rail_fast ship container cable_car subway aircraft wheelchair scooter drone" speed="8.56" length="10.63" shape="1899.19,824.60 1901.91,823.09 1905.32,822.79 1909.29,823.78"/>
    </edge>
    <edge id=":11187715054_11" function="internal">
        <lane id=":11187715054_11_0" index="0" disallow="tram rail_urban rail rail_electric rail_fast ship container cable_car subway aircraft wheelchair scooter drone" speed="3.65" length="3.23" shape="1898.04,826.91 1898.94,826.96 1899.43,827.70 1899.53,829.14"/>
    </edge>
    <edge id=":11207517932_0" function="internal">
        <lane id=":11207517932_0_0" index="0" disallow="tram rail_urban rail rail_electric rail_fast ship container cable_car subway aircraft wheelchair scooter drone" speed="6.76" length="9.37" shape="857.96,981.28 857.52,978.68 856.42,976.81 854.66,975.66 852.24,975.23"/>
    </edge>
    <edge id=":11207517932_1" function="internal">
        <lane id=":11207517932_1_0" index="0" disallow="tram rail_urban rail rail_electric rail_fast ship container cable_car subway aircraft wheelchair scooter drone" speed="7.76" length="13.97" shape="857.96,981.28 858.35,977.30 859.84,974.50 862.43,972.87 866.14,972.41"/>
    </edge>
    <edge id=":11207517932_2" function="internal">
        <lane id=":11207517932_2_0" index="0" disallow="tram rail_urban rail rail_electric rail_fast ship container cable_car subway aircraft wheelchair scooter drone" speed="2.78" length="4.67" shape="857.96,981.28 858.72,980.05 859.50,979.62 860.32,979.99 861.16,981.16"/>
    </edge>
    <edge id=":11207517932_3" function="internal">
        <lane id=":11207517932_3_0" index="0" disallow="tram rail_urban rail rail_electric rail_fast ship container cable_car subway aircraft wheelchair scooter drone" speed="6.21" length="8.55" shape="866.04,975.61 863.83,975.90 862.27,976.92 861.39,978.67 861.16,981.16"/>
    </edge>
    <edge id=":11207517932_4" function="internal">
        <lane id=":11207517932_4_0" index="0" disallow="tram rail_urban rail rail_electric rail_fast ship container cable_car subway aircraft wheelchair scooter drone" speed="27.78" length="13.80" shape="866.04,975.61 852.24,975.23"/>
    </edge>
    <edge id=":11207517932_5" function="internal">
        <lane id=":11207517932_5_0" index="0" disallow="tram rail_urban rail rail_electric rail_fast ship container cable_car subway aircraft wheelchair scooter drone" speed="3.65" length="1.44" shape="866.04,975.61 864.86,974.77"/>
    </edge>
    <edge id=":11207517932_9" function="internal">
        <lane id=":11207517932_9_0" index="0" disallow="tram rail_urban rail rail_electric rail_fast ship container cable_car subway aircraft wheelchair scooter drone" speed="3.65" length="3.23" shape="864.86,974.77 864.49,973.96 864.91,973.17 866.14,972.41"/>
    </edge>
    <edge id=":11207517932_6" function="internal">
        <lane id=":11207517932_6_0" index="0" disallow="tram rail_urban rail rail_electric rail_fast ship container cable_car subway aircraft wheelchair scooter drone" speed="27.78" length="13.82" shape="852.32,972.03 866.14,972.41"/>
    </edge>
    <edge id=":11207517932_7" function="internal">
        <lane id=":11207517932_7_0" index="0" disallow="tram rail_urban rail rail_electric rail_fast ship container cable_car subway aircraft wheelchair scooter drone" speed="8.21" length="3.99" shape="852.32,972.03 856.06,972.68 856.22,972.78"/>
    </edge>
    <edge id=":11207517932_8" function="internal">
        <lane id=":11207517932_8_0" index="0" disallow="tram rail_urban rail rail_electric rail_fast ship container cable_car subway aircraft wheelchair scooter drone" speed="3.65" length="1.44" shape="852.32,972.03 853.50,972.86"/>
    </edge>
    <edge id=":11207517932_10" function="internal">
        <lane id=":11207517932_10_0" index="0" disallow="tram rail_urban rail rail_electric rail_fast ship container cable_car subway aircraft wheelchair scooter drone" speed="8.21" length="10.31" shape="856.22,972.78 858.79,974.42 860.48,977.24 861.16,981.16"/>
    </edge>
    <edge id=":11207517932_11" function="internal">
        <lane id=":11207517932_11_0" index="0" disallow="tram rail_urban rail rail_electric rail_fast ship container cable_car subway aircraft wheelchair scooter drone" speed="3.65" length="3.23" shape="853.50,972.86 853.88,973.67 853.46,974.46 852.24,975.23"/>
    </edge>
    <edge id=":11207517933_0" function="internal">
        <lane id=":11207517933_0_0" index="0" disallow="tram rail_urban rail rail_electric rail_fast ship container cable_car subway aircraft wheelchair scooter drone" speed="2.78" length="4.67" shape="862.76,1024.73 862.01,1025.96 861.22,1026.39 860.41,1026.02 859.56,1024.85"/>
    </edge>
    <edge id=":11207531469_0" function="internal">
        <lane id=":11207531469_0_0" index="0" disallow="tram rail_urban rail rail_electric rail_fast ship container cable_car subway aircraft wheelchair scooter drone" speed="2.78" length="4.67" shape="920.09,928.54 920.84,927.31 921.62,926.87 922.43,927.24 923.29,928.40"/>
    </edge>
    <edge id=":11207533233_0" function="internal">
        <lane id=":11207533233_0_0" index="0" disallow="tram rail_urban rail rail_electric rail_fast ship container cable_car subway aircraft wheelchair scooter drone" speed="13.89" length="15.06" shape="1285.79,1509.04 1282.07,1509.59 1278.33,1510.04 1274.57,1510.36 1270.82,1510.55"/>
    </edge>
    <edge id=":11207533233_1" function="internal">
        <lane id=":11207533233_1_0" index="0" disallow="tram rail_urban rail rail_electric rail_fast ship container cable_car subway aircraft wheelchair scooter drone" speed="7.73" length="4.36" shape="1285.79,1509.04 1281.61,1509.12 1281.45,1509.05"/>
    </edge>
    <edge id=":11207533233_2" function="internal">
        <lane id=":11207533233_2_0" index="0" disallow="tram rail_urban rail rail_electric rail_fast ship container cable_car subway aircraft wheelchair scooter drone" speed="3.65" length="1.44" shape="1285.79,1509.04 1284.48,1508.44"/>
    </edge>
    <edge id=":11207533233_9" function="internal">
        <lane id=":11207533233_9_0" index="0" disallow="tram rail_urban rail rail_electric rail_fast ship container cable_car subway aircraft wheelchair scooter drone" speed="7.73" length="10.52" shape="1281.45,1509.05 1278.64,1507.79 1276.86,1505.06 1276.29,1500.92"/>
    </edge>
    <edge id=":11207533233_10" function="internal">
        <lane id=":11207533233_10_0" index="0" disallow="tram rail_urban rail rail_electric rail_fast ship container cable_car subway aircraft wheelchair scooter drone" speed="3.65" length="3.23" shape="1284.48,1508.44 1283.95,1507.72 1284.22,1506.86 1285.27,1505.88"/>
    </edge>
    <edge id=":11207533233_3" function="internal">
        <lane id=":11207533233_3_0" index="0" disallow="tram rail_urban rail rail_electric rail_fast ship container cable_car subway aircraft wheelchair scooter drone" speed="6.17" length="9.05" shape="1279.49,1500.94 1279.84,1503.46 1280.92,1505.12 1282.73,1505.93 1285.27,1505.88"/>
    </edge>
    <edge id=":11207533233_4" function="internal">
        <lane id=":11207533233_4_0" index="0" disallow="tram rail_urban rail rail_electric rail_fast ship container cable_car subway aircraft wheelchair scooter drone" speed="8.23" length="14.63" shape="1279.49,1500.94 1278.93,1505.04 1277.29,1508.01 1274.59,1509.85 1270.82,1510.55"/>
    </edge>
    <edge id=":11207533233_5" function="internal">
        <lane id=":11207533233_5_0" index="0" disallow="tram rail_urban rail rail_electric rail_fast ship container cable_car subway aircraft wheelchair scooter drone" speed="3.65" length="4.67" shape="1279.49,1500.94 1278.68,1502.14 1277.88,1502.53 1277.08,1502.12 1276.29,1500.92"/>
    </edge>
    <edge id=":11207533233_6" function="internal">
        <lane id=":11207533233_6_0" index="0" disallow="tram rail_urban rail rail_electric rail_fast ship container cable_car subway aircraft wheelchair scooter drone" speed="6.79" length="9.62" shape="1270.72,1507.36 1273.14,1506.89 1274.88,1505.66 1275.93,1503.67 1276.29,1500.92"/>
    </edge>
    <edge id=":11207533233_7" function="internal">
        <lane id=":11207533233_7_0" index="0" disallow="tram rail_urban rail rail_electric rail_fast ship container cable_car subway aircraft wheelchair scooter drone" speed="13.89" length="14.64" shape="1270.72,1507.36 1274.40,1507.17 1278.02,1506.86 1281.62,1506.43 1285.27,1505.88"/>
    </edge>
    <edge id=":11207533233_8" function="internal">
        <lane id=":11207533233_8_0" index="0" disallow="tram rail_urban rail rail_electric rail_fast ship container cable_car subway aircraft wheelchair scooter drone" speed="3.65" length="1.44" shape="1270.72,1507.36 1271.94,1508.12"/>
    </edge>
    <edge id=":11207533233_11" function="internal">
        <lane id=":11207533233_11_0" index="0" disallow="tram rail_urban rail rail_electric rail_fast ship container cable_car subway aircraft wheelchair scooter drone" speed="3.65" length="3.23" shape="1271.94,1508.12 1272.37,1508.90 1271.99,1509.72 1270.82,1510.55"/>
    </edge>
    <edge id=":11207539371_0" function="internal">
        <lane id=":11207539371_0_0" index="0" disallow="tram rail_urban rail rail_electric rail_fast ship container cable_car subway aircraft wheelchair scooter drone" speed="2.78" length="4.67" shape="1238.87,1315.13 1240.30,1314.92 1241.13,1315.25 1241.37,1316.12 1241.01,1317.51"/>
    </edge>
    <edge id=":11207546587_0" function="internal">
        <lane id=":11207546587_0_0" index="0" allow="pedestrian delivery bicycle" speed="3.65" length="4.67" shape="1439.30,1307.63 1438.19,1308.56 1437.31,1308.71 1436.66,1308.10 1436.23,1306.73"/>
    </edge>
    <edge id=":11207546588_0" function="internal">
        <lane id=":11207546588_0_0" index="0" allow="pedestrian delivery bicycle" speed="5.37" length="6.04" shape="1468.98,1222.29 1467.11,1221.85 1465.65,1221.98 1464.60,1222.66 1463.94,1223.90"/>
    </edge>
    <edge id=":11207546588_1" function="internal">
        <lane id=":11207546588_1_0" index="0" disallow="tram rail_urban rail rail_electric rail_fast ship container cable_car subway aircraft wheelchair scooter drone" speed="27.78" length="30.65" shape="1468.98,1222.29 1463.04,1220.53 1454.22,1218.15 1445.38,1215.85 1439.38,1214.33"/>
    </edge>
    <edge id=":11207546588_2" function="internal">
        <lane id=":11207546588_2_0" index="0" disallow="tram rail_urban rail rail_electric rail_fast ship container cable_car subway aircraft wheelchair scooter drone" speed="20.84" length="4.04" shape="1468.98,1222.29 1465.34,1220.54"/>
    </edge>
    <edge id=":11207546588_3" function="internal">