<edges xmlns:xsi="http://www.w3.org/2001/XMLSchema-instance" version="1.20" xsi:noNamespaceSchemaLocation="http://sumo.dlr.de/xsd/edges_file.xsd">
    <location netOffset="-719257.86,-939950.39" convBoundary="0.00,0.00,3100.01,3029.42" origBoundary="76.977119,8.478500,77.030880,8.576337" projParameter="+proj=utm +zone=43 +ellps=WGS84 +datum=WGS84 +units=m +no_defs" />

    <edge id="-1050839641" from="7509408445" to="6975705271" priority="3" type="highway.residential" numLanes="1" speed="13.89" shape="1211.57,1547.96 1211.42,1553.16 1214.16,1556.85 1219.65,1559.24 1225.73,1561.69 1233.18,1563.86 1240.76,1564.71 1248.03,1565.59 1257.02,1565.62 1265.01,1563.96 1273.25,1560.99" disallow="tram rail_urban rail rail_electric rail_fast ship container cable_car subway aircraft wheelchair scooter drone" />
    <edge id="-1050839644" from="6988776451" to="9656654012" priority="3" type="highway.residential" numLanes="1" speed="13.89" disallow="tram rail_urban rail rail_electric rail_fast ship container cable_car subway aircraft wheelchair scooter drone" />
    <edge id="-1050839645" from="3509658898" to="9656654013" priority="3" type="highway.residential" numLanes="1" speed="13.89" disallow="tram rail_urban rail rail_electric rail_fast ship container cable_car subway aircraft wheelchair scooter drone" />
    <edge id="-1050839653" from="9656654034" to="304987300" priority="3" type="highway.residential" numLanes="1" speed="13.89" shape="1860.95,1262.16 1861.85,1315.58 1854.15,1319.65 1794.84,1318.08" disallow="tram rail_urban rail rail_electric rail_fast ship container cable_car subway aircraft wheelchair scooter drone" />
    <edge id="-1050839654" from="9656654037" to="9656654035" priority="3" type="highway.residential" numLanes="1" speed="13.89" shape="1949.94,1317.67 1943.28,1361.48 1911.60,1424.72" disallow="tram rail_urban rail rail_electric rail_fast ship container cable_car subway aircraft wheelchair scooter drone" />
    <edge id="-1050840917" from="11187715054" to="11187715047" priority="3" type="highway.residential" numLanes="1" speed="13.89" shape="1901.50,822.50 1981.15,853.11 1986.92,831.84 1992.12,815.96 2006.16,794.43 2024.43,765.74 2039.86,735.13 2104.16,768.71" disallow="tram rail_urban rail rail_electric rail_fast ship container cable_car subway aircraft wheelchair scooter drone" />
    <edge id="-1082081940" from="9916993828" to="9656664639" priority="4" type="highway.unclassified" numLanes="1" speed="13.89" shape="1805.52,1586.56 1812.18,1614.38 1768.06,1620.00 1765.09,1625.82 1765.78,1634.95 1798.27,1716.55" disallow="tram rail_urban rail rail_electric rail_fast ship container cable_car subway aircraft wheelchair scooter drone" />
    <edge id="-1107087158" from="10130220378" to="10130220377" priority="3" type="highway.residential" numLanes="1" speed="13.89" disallow="tram rail_urban rail rail_electric rail_fast ship container cable_car subway aircraft wheelchair scooter drone" />
    <edge id="-1204149318" from="11160696491" to="3508312315" priority="3" type="highway.residential" numLanes="1" speed="13.89" shape="1994.23,921.24 1949.65,895.78 1913.99,943.76 1906.20,948.97 1892.82,951.36 1808.49,947.24" disallow="tram rail_urban rail rail_electric rail_fast ship container cable_car subway aircraft wheelchair scooter drone" />
    <edge id="-1207396415" from="11187592866" to="11187592865" priority="2" type="highway.living_street" numLanes="1" speed="2.78" disallow="tram rail_urban rail rail_electric rail_fast ship container cable_car subway aircraft wheelchair scooter drone" />
    <edge id="-1209728804" from="11207539371" to="7506778496" priority="2" type="highway.living_street" numLanes="1" speed="2.78" disallow="tram rail_urban rail rail_electric rail_fast ship container cable_car subway aircraft wheelchair scooter drone" />
    <edge id="-1209729127" from="11207570084" to="11207570082" priority="3" type="highway.residential" numLanes="1" speed="13.89" shape="1175.65,1141.38 1176.59,1154.93 1157.20,1169.31" disallow="tram rail_urban rail rail_electric rail_fast ship container cable_car subway aircraft wheelchair scooter drone" />
    <edge id="-1209729260" from="11207546588" to="11207546587" priority="1" type="highway.service" numLanes="1" speed="5.56" allow="pedestrian delivery bicycle" />
    <edge id="-1209729401" from="11207517933" to="11207517932" priority="2" type="highway.living_street" numLanes="1" speed="2.78" disallow="tram rail_urban rail rail_electric rail_fast ship container cable_car subway aircraft wheelchair scooter drone" />
    <edge id="-1209729506" from="11207531469" to="304987316" priority="2" type="highway.living_street" numLanes="1" speed="2.78" disallow="tram rail_urban rail rail_electric rail_fast ship container cable_car subway aircraft wheelchair scooter drone" />
    <edge id="-1209729847" from="13376010243" to="11207533233" priority="3" type="highway.residential" numLanes="1" speed="13.89" shape="1402.25,1436.70 1402.75,1444.40 1399.99,1454.45 1395.26,1460.16 1316.58,1482.98 1310.28,1482.72 1303.05,1478.03 1290.70,1472.16 1286.27,1469.58 1280.89,1469.56 1278.06,1474.65 1277.84,1508.72" disallow="tram rail_urban rail rail_electric rail_fast ship container cable_car subway aircraft wheelchair scooter drone" />
    <edge id="-1209730481" from="11207546588" to="11207555224" priority="3" type="highway.residential" numLanes="1" speed="13.89" shape="1463.78,1218.79 1463.43,1215.07 1406.28,1191.33 1434.48,1118.78" disallow="tram rail_urban rail rail_electric rail_fast ship container cable_car subway aircraft wheelchair scooter drone" />
    <edge id="-1209731273" from="11207591625" to="11207591624" priority="1" type="highway.service" numLanes="1" speed="5.56" allow="pedestrian delivery bicycle" />
    <edge id="-1209731431" from="11207569965" to="11207569964" priority="2" type="highway.living_street" numLanes="1" speed="2.78" shape="948.23,913.87 946.48,941.62 938.85,981.02" disallow="tram rail_urban rail rail_electric rail_fast ship container cable_car subway aircraft wheelchair scooter drone" />
    <edge id="-1209732955" from="11207605356" to="3508835243" priority="3" type="highway.residential" numLanes="1" speed="13.89" shape="1154.84,948.75 1152.46,958.79 1148.07,991.38 1143.83,1019.18" disallow="tram rail_urban rail rail_electric rail_fast ship container cable_car subway aircraft wheelchair scooter drone" />
    <edge id="-1209944259" from="11209405603" to="11209405601" priority="3" type="highway.residential" numLanes="1" speed="13.89" shape="721.56,1550.36 701.01,1547.00 654.96,1542.65" disallow="tram rail_urban rail rail_electric rail_fast ship container cable_car subway aircraft wheelchair scooter drone" />
    <edge id="-1209944601" from="11209397047" to="11209397046" priority="2" type="highway.living_street" numLanes="1" speed="2.78" disallow="tram rail_urban rail rail_electric rail_fast ship container cable_car subway aircraft wheelchair scooter drone" />
    <edge id="-1209952765" from="7505774440" to="11209467305" priority="3" type="highway.residential" numLanes="1" speed="13.89" shape="1205.50,935.62 1197.32,933.11 1185.66,929.11 1176.06,925.70" disallow="tram rail_urban rail rail_electric rail_fast ship container cable_car subway aircraft wheelchair scooter drone" />
    <edge id="-122488406#0" from="7008076814" to="304987317" priority="10" type="highway.tertiary" numLanes="1" speed="22.22" shape="687.43,1000.40 708.52,988.65 724.82,980.51 742.27,973.51 748.51,970.92 766.49,961.65" disallow="tram rail_urban rail rail_electric rail_fast ship container cable_car subway aircraft wheelchair scooter drone" />
    <edge id="-122488406#1" from="12086781739" to="7008076814" priority="10" type="highway.tertiary" numLanes="1" speed="22.22" disallow="tram rail_urban rail rail_electric rail_fast ship container cable_car subway aircraft wheelchair scooter drone" />
    <edge id="-122488406#2" from="6978940035" to="12086781739" priority="10" type="highway.tertiary" numLanes="1" speed="22.22" shape="611.64,1051.29 622.30,1044.17 634.21,1036.78 659.62,1019.35 680.98,1004.74" disallow="tram rail_urban rail rail_electric rail_fast ship container cable_car subway aircraft wheelchair scooter drone" />
    <edge id="-122488406#3" from="6986512916" to="6978940035" priority="10" type="highway.tertiary" numLanes="1" speed="22.22" shape="540.16,1096.18 552.35,1089.71 562.70,1083.71 575.24,1076.66 595.40,1062.70 611.64,1051.29" disallow="tram rail_urban rail rail_electric rail_fast ship container cable_car subway aircraft wheelchair scooter drone" />
    <edge id="-122488406#4" from="1368663999" to="6986512916" priority="10" type="highway.tertiary" numLanes="1" speed="22.22" shape="310.37,1241.04 313.88,1235.84 321.18,1227.33 330.87,1217.85 338.99,1211.68 350.91,1204.03 368.41,1195.96 379.67,1190.13 394.81,1181.01 407.10,1170.70 419.72,1161.10 432.91,1149.12 447.40,1137.99 454.38,1132.72 463.15,1127.68 473.41,1122.94 488.79,1115.79 510.38,1106.99 525.82,1101.51 540.16,1096.18" disallow="tram rail_urban rail rail_electric rail_fast ship container cable_car subway aircraft wheelchair scooter drone" />
    <edge id="-1304994252" from="12086781740" to="12086781739" priority="3" type="highway.residential" numLanes="1" speed="13.89" disallow="tram rail_urban rail rail_electric rail_fast ship container cable_car subway aircraft wheelchair scooter drone" />
    <edge id="-1377702598#0" from="3520745172" to="3520745169" priority="3" type="highway.residential" numLanes="1" speed="13.89" shape="1521.89,775.75 1482.95,756.29 1449.92,746.73" disallow="tram rail_urban rail rail_electric rail_fast ship container cable_car subway aircraft wheelchair scooter drone" />
    <edge id="-1377702598#1" from="10130220376" to="3520745172" priority="3" type="highway.residential" numLanes="1" speed="13.89" shape="1550.24,717.67 1583.46,736.61 1547.69,786.25 1521.89,775.75" disallow="tram rail_urban rail rail_electric rail_fast ship container cable_car subway aircraft wheelchair scooter drone" />
    <edge id="-1377702599" from="12756682171" to="7509200693" priority="3" type="highway.residential" numLanes="1" speed="13.89" shape="1012.69,755.34 1015.37,757.81 1046.30,786.93" disallow="tram rail_urban rail rail_electric rail_fast ship container cable_car subway aircraft wheelchair scooter drone" />
    <edge id="-1458156148" from="7506773582" to="6978699093" priority="2" type="highway.living_street" numLanes="1" speed="2.78" shape="1062.51,1468.79 1068.95,1467.33 1080.63,1465.26 1091.89,1461.62 1102.81,1465.29 1142.07,1481.65" disallow="tram rail_urban rail rail_electric rail_fast ship container cable_car subway aircraft wheelchair scooter drone" />
    <edge id="-1458156149#0" from="7506778493" to="13372874940" priority="2" type="highway.living_street" numLanes="1" speed="2.78" shape="1120.83,1403.11 1110.74,1398.04 1087.87,1386.08 1083.24,1390.33 1064.09,1384.59" disallow="tram rail_urban rail rail_electric rail_fast ship container cable_car subway aircraft wheelchair scooter drone" />
    <edge id="-1458156149#1" from="7505685518" to="7506778493" priority="2" type="highway.living_street" numLanes="1" speed="2.78" shape="1167.27,1428.17 1157.29,1423.45 1147.74,1418.88 1137.82,1413.25 1120.83,1403.11" disallow="tram rail_urban rail rail_electric rail_fast ship container cable_car subway aircraft wheelchair scooter drone" />
    <edge id="-1458156153#0" from="11207570082" to="13372874971" priority="10" type="highway.tertiary" numLanes="1" speed="13.89" shape="1157.20,1169.31 1158.44,1171.18 1166.38,1198.58 1172.86,1235.64 1176.52,1254.60 1180.17,1267.76" disallow="tram rail_urban rail rail_electric rail_fast ship container cable_car subway aircraft wheelchair scooter drone" />
    <edge id="-1458156153#1" from="7148607063" to="11207570082" priority="10" type="highway.tertiary" numLanes="1" speed="13.89" shape="1134.04,1128.19 1145.69,1151.70 1157.20,1169.31" disallow="tram rail_urban rail rail_electric rail_fast ship container cable_car subway aircraft wheelchair scooter drone" />
    <edge id="-1458156153#2" from="304987310" to="7148607063" priority="10" type="highway.tertiary" numLanes="1" speed="13.89" shape="1137.12,1066.51 1133.52,1109.14 1134.04,1128.19" disallow="tram rail_urban rail rail_electric rail_fast ship container cable_car subway aircraft wheelchair scooter drone" />
    <edge id="-1458156154" from="13372874971" to="2708930090" priority="10" type="highway.tertiary" numLanes="1" speed="13.89" disallow="tram rail_urban rail rail_electric rail_fast ship container cable_car subway aircraft wheelchair scooter drone" />
    <edge id="-1458156155" from="13372874990" to="3508312319" priority="3" type="highway.residential" numLanes="1" speed="13.89" disallow="tram rail_urban rail rail_electric rail_fast ship container cable_car subway aircraft wheelchair scooter drone" />
    <edge id="-1458228607" from="7505685497" to="7505685494" priority="3" type="highway.residential" numLanes="1" speed="13.89" shape="1073.69,1227.47 1099.29,1252.73 1107.08,1263.74 1101.41,1274.68 1065.84,1322.04" disallow="tram rail_urban rail rail_electric rail_fast ship container cable_car subway aircraft wheelchair scooter drone" />
    <edge id="-1458236717#0" from="7506778508" to="6978699108" priority="3" type="highway.residential" numLanes="1" speed="13.89" shape="1039.38,1593.52 1067.66,1600.37 1108.63,1609.13" disallow="tram rail_urban rail rail_electric rail_fast ship container cable_car subway aircraft wheelchair scooter drone" />
    <edge id="-1458236717#1" from="6978699101" to="7506778508" priority="3" type="highway.residential" numLanes="1" speed="13.89" shape="950.22,1578.55 962.17,1579.28 980.19,1582.56 996.39,1586.67 1005.52,1588.04 1029.72,1592.01 1039.38,1593.52" disallow="tram rail_urban rail rail_electric rail_fast ship container cable_car subway aircraft wheelchair scooter drone" />
    <edge id="-1458334191#0" from="304987319" to="304987317" priority="11" type="highway.secondary" numLanes="1" speed="27.78" disallow="tram rail_urban rail rail_electric rail_fast ship container cable_car subway aircraft wheelchair scooter drone" />
    <edge id="-1458334191#1" from="304987320" to="304987319" priority="11" type="highway.secondary" numLanes="1" speed="27.78" shape="682.09,883.47 699.70,909.33 722.28,930.33" disallow="tram rail_urban rail rail_electric rail_fast ship container cable_car subway aircraft wheelchair scooter drone" />
    <edge id="-1458334191#2" from="304987321" to="304987320" priority="11" type="highway.secondary" numLanes="1" speed="27.78" shape="663.14,850.92 673.88,865.78 682.09,883.47" disallow="tram rail_urban rail rail_electric rail_fast ship container cable_car subway aircraft wheelchair scooter drone" />
    <edge id="-1458334191#3" from="11187592865" to="304987321" priority="11" type="highway.secondary" numLanes="1" speed="27.78" disallow="tram rail_urban rail rail_electric rail_fast ship container cable_car subway aircraft wheelchair scooter drone" />
    <edge id="-1458334191#4" from="2156121247" to="11187592865" priority="11" type="highway.secondary" numLanes="1" speed="27.78" shape="0.00,384.57 33.24,400.11 63.23,413.69 83.87,425.13 101.65,442.37 106.12,452.66 108.04,463.56 108.70,473.74 114.78,515.92 120.13,529.92 125.60,539.42 138.29,556.91 147.83,569.11 168.91,594.21 169.98,595.27 195.55,637.01 203.68,654.15 205.73,658.56 219.75,689.24 234.99,731.71 255.72,790.74 268.09,825.11 277.32,843.61 290.54,858.21 308.64,872.43 316.97,876.90 332.23,883.80 432.67,923.70 450.89,930.53 463.64,932.15 467.86,932.40 476.52,931.27 485.40,923.98 491.31,915.21 503.00,902.67 507.87,897.48 508.52,894.22 518.04,882.42 522.45,878.73 546.04,859.06 589.18,833.61 604.28,827.87 613.22,826.13 622.46,827.29 632.43,829.96 647.15,837.49" disallow="tram rail_urban rail rail_electric rail_fast ship container cable_car subway aircraft wheelchair scooter drone" />
    <edge id="-1458334192" from="7506773565" to="304987310" priority="11" type="highway.secondary" numLanes="1" speed="27.78" disallow="tram rail_urban rail rail_electric rail_fast ship container cable_car subway aircraft wheelchair scooter drone" />
    <edge id="-1458438161" from="13375517599" to="13375517596" priority="2" type="highway.living_street" numLanes="1" speed="2.78" shape="1221.79,1301.15 1214.86,1305.57 1207.03,1318.16 1200.91,1327.20" disallow="tram rail_urban rail rail_electric rail_fast ship container cable_car subway aircraft wheelchair scooter drone" />
    <edge id="-1458438168" from="6975695255" to="7509408445" priority="3" type="highway.residential" numLanes="1" speed="13.89" shape="1231.47,1501.29 1225.15,1517.80 1218.48,1532.95 1214.19,1541.15 1211.57,1547.96" disallow="tram rail_urban rail rail_electric rail_fast ship container cable_car subway aircraft wheelchair scooter drone" />
    <edge id="-1459114486" from="7506773577" to="7506773574" priority="2" type="highway.living_street" numLanes="1" speed="2.78" shape="1015.05,1518.08 993.76,1520.00 979.59,1521.34 955.93,1521.84" disallow="tram rail_urban rail rail_electric rail_fast ship container cable_car subway aircraft wheelchair scooter drone" />
    <edge id="-1459998823#0" from="7505669847" to="304987317" priority="11" type="highway.secondary" numLanes="1" speed="27.78" disallow="tram rail_urban rail rail_electric rail_fast ship container cable_car subway aircraft wheelchair scooter drone" />
    <edge id="-1459998823#1" from="11207517932" to="7505669847" priority="11" type="highway.secondary" numLanes="1" speed="27.78" shape="859.29,973.80 830.35,973.10 798.24,969.85" disallow="tram rail_urban rail rail_electric rail_fast ship container cable_car subway aircraft wheelchair scooter drone" />
    <edge id="-1459998823#2" from="11207591624" to="11207517932" priority="11" type="highway.secondary" numLanes="1" speed="27.78" disallow="tram rail_urban rail rail_electric rail_fast ship container cable_car subway aircraft wheelchair scooter drone" />
    <edge id="-1459998823#3" from="304987316" to="11207591624" priority="11" type="highway.secondary" numLanes="1" speed="27.78" shape="923.93,978.33 896.60,975.51 871.11,974.16" disallow="tram rail_urban rail rail_electric rail_fast ship container cable_car subway aircraft wheelchair scooter drone" />
    <edge id="-1459998823#4" from="11207569964" to="304987316" priority="11" type="highway.secondary" numLanes="1" speed="27.78" disallow="tram rail_urban rail rail_electric rail_fast ship container cable_car subway aircraft wheelchair scooter drone" />
    <edge id="-1459998823#5" from="304987315" to="11207569964" priority="11" type="highway.secondary" numLanes="1" speed="27.78" disallow="tram rail_urban rail rail_electric rail_fast ship container cable_car subway aircraft wheelchair scooter drone" />
    <edge id="-1459998823#6" from="7506773539" to="304987315" priority="11" type="highway.secondary" numLanes="1" speed="27.78" shape="983.15,1050.52 976.30,1041.23 968.41,1019.60 959.76,998.98 954.09,990.33 946.50,983.84" disallow="tram rail_urban rail rail_electric rail_fast ship container cable_car subway aircraft wheelchair scooter drone" />
    <edge id="-1459998823#7" from="304987310" to="7506773539" priority="11" type="highway.secondary" numLanes="1" speed="27.78" shape="1137.12,1066.51 1075.59,1067.33 1012.32,1057.45 989.78,1054.48 983.15,1050.52" disallow="tram rail_urban rail rail_electric rail_fast ship container cable_car subway aircraft wheelchair scooter drone" />
    <edge id="-265229350#0" from="2708930067" to="2708929876" priority="10" type="highway.tertiary" numLanes="1" speed="13.89" shape="1091.44,1656.60 1087.95,1670.52 1080.71,1690.44 1062.68,1742.44 1057.78,1754.81 1051.27,1771.22 1039.26,1791.51 1025.34,1819.63 1017.58,1860.55 1006.72,1913.54 1000.12,1946.52 992.01,1983.93 986.88,2014.79 978.16,2041.45 973.00,2054.38 966.87,2066.39 958.50,2079.00 957.03,2084.28 950.56,2091.12 944.45,2096.46 938.98,2102.06 928.81,2112.50 918.53,2123.34 910.21,2135.90 897.87,2154.78 886.28,2175.35 878.17,2191.81 871.13,2204.77 858.55,2225.50 853.77,2235.78 849.14,2248.36 842.94,2261.07 832.33,2280.01 820.67,2293.75 800.19,2316.73 772.41,2345.82 751.29,2365.94 726.71,2391.19 714.06,2405.81 702.44,2424.51 687.73,2452.75 663.97,2479.62 652.08,2491.44 647.89,2495.04 644.86,2496.67 639.18,2497.98 632.04,2497.33 621.59,2494.18 608.94,2489.56 600.80,2486.42 593.44,2483.25 585.56,2480.89 578.80,2485.90 573.33,2492.71 565.08,2508.64 555.73,2532.07 549.22,2547.56 546.17,2553.28 539.29,2561.88 521.75,2587.12 506.62,2612.57 502.92,2631.08 500.53,2643.73 499.63,2658.46 492.97,2688.27 491.34,2696.72 487.89,2710.95 483.58,2728.13 480.08,2740.72 474.78,2757.93 471.47,2764.67 458.60,2759.36 441.46,2752.69 431.99,2750.14 422.79,2749.76 417.70,2750.01 396.56,2750.31 383.95,2750.79 371.41,2749.50 346.78,2748.22 336.29,2748.71 320.51,2750.82 306.60,2755.17 284.67,2764.04 271.80,2771.99 252.95,2783.92 239.09,2793.26 222.27,2803.97 209.39,2812.66 200.79,2823.53 191.65,2834.45 186.39,2839.39 178.39,2846.44 168.47,2854.40 155.64,2862.93 143.90,2875.46 133.92,2889.80 112.26,2921.24 102.06,2945.62 97.65,2958.46 90.33,2981.48 85.33,2991.78 76.15,3008.71 60.44,3029.42" disallow="tram rail_urban rail rail_electric rail_fast ship container cable_car subway aircraft wheelchair scooter drone" />
    <edge id="-265229350#1" from="6978699108" to="2708930067" priority="10" type="highway.tertiary" numLanes="1" speed="13.89" shape="1108.63,1609.13 1101.99,1625.65 1096.15,1640.86 1091.44,1656.60" disallow="tram rail_urban rail rail_electric rail_fast ship container cable_car subway aircraft wheelchair scooter drone" />
    <edge id="-265229350#2" from="2708930075" to="6978699108" priority="10" type="highway.tertiary" numLanes="1" speed="13.89" shape="1133.77,1551.47 1129.40,1563.86 1124.87,1575.41 1116.81,1593.90 1108.63,1609.13" disallow="tram rail_urban rail rail_electric rail_fast ship container cable_car subway aircraft wheelchair scooter drone" />
    <edge id="-265229350#3" from="6978699093" to="2708930075" priority="10" type="highway.tertiary" numLanes="1" speed="13.89" shape="1142.07,1481.65 1139.43,1497.66 1139.16,1512.29 1137.15,1523.45 1136.19,1534.74 1135.77,1544.89 1133.77,1551.47" disallow="tram rail_urban rail rail_electric rail_fast ship container cable_car subway aircraft wheelchair scooter drone" />
    <edge id="-265229350#4" from="7505685518" to="6978699093" priority="10" type="highway.tertiary" numLanes="1" speed="13.89" shape="1167.27,1428.17 1159.73,1444.78 1150.65,1463.01 1142.07,1481.65" disallow="tram rail_urban rail rail_electric rail_fast ship container cable_car subway aircraft wheelchair scooter drone" />
    <edge id="-265229350#5" from="6975695268" to="7505685518" priority="10" type="highway.tertiary" numLanes="1" speed="13.89" disallow="tram rail_urban rail rail_electric rail_fast ship container cable_car subway aircraft wheelchair scooter drone" />
    <edge id="-265229350#6" from="7506481426" to="6975695268" priority="10" type="highway.tertiary" numLanes="1" speed="13.89" shape="1201.25,1331.65 1200.07,1349.15 1197.74,1364.17 1189.55,1385.20 1177.89,1405.35 1170.14,1421.94" disallow="tram rail_urban rail rail_electric rail_fast ship container cable_car subway aircraft wheelchair scooter drone" />
    <edge id="-265229350#7" from="13375517596" to="7506481426" priority="10" type="highway.tertiary" numLanes="1" speed="13.89" disallow="tram rail_urban rail rail_electric rail_fast ship container cable_car subway aircraft wheelchair scooter drone" />
    <edge id="-265229350#8" from="7010206995" to="13375517596" priority="10" type="highway.tertiary" numLanes="1" speed="13.89" shape="1190.23,1297.62 1198.52,1320.38 1200.91,1327.20" disallow="tram rail_urban rail rail_electric rail_fast ship container cable_car subway aircraft wheelchair scooter drone" />
    <edge id="-265229350#9" from="2708930090" to="7010206995" priority="10" type="highway.tertiary" numLanes="1" speed="13.89" disallow="tram rail_urban rail rail_electric rail_fast ship container cable_car subway aircraft wheelchair scooter drone" />
    <edge id="-338648528#0" from="8625984942" to="356670719" priority="11" type="highway.secondary" numLanes="1" speed="27.78" shape="1932.57,1440.60 1947.63,1448.42 1964.93,1454.31 1994.84,1463.77 2038.26,1478.77 2054.38,1482.51 2080.59,1485.33 2124.95,1488.67 2155.96,1496.11 2183.84,1505.49 2238.82,1529.12 2249.52,1534.56 2281.75,1549.74 2355.64,1575.54 2456.99,1609.43 2481.82,1617.22 2558.15,1641.22 2563.14,1642.78 2614.87,1658.99 2638.47,1666.38 2684.86,1679.63 2696.70,1683.01 2727.08,1686.91 2800.67,1695.59 2828.37,1698.82 2849.78,1710.27 2866.55,1719.23 2893.12,1744.66 2947.01,1779.85 2954.75,1784.86 2970.46,1790.48 2985.92,1796.03 2999.89,1795.12 3040.31,1792.46 3077.30,1788.82" disallow="tram rail_urban rail rail_electric rail_fast ship container cable_car subway aircraft wheelchair scooter drone" />
    <edge id="-338648528#1" from="9656654035" to="8625984942" priority="11" type="highway.secondary" numLanes="1" speed="27.78" disallow="tram rail_urban rail rail_electric rail_fast ship container cable_car subway aircraft wheelchair scooter drone" />
    <edge id="-338648528#10" from="7505685527" to="11207546588" priority="11" type="highway.secondary" numLanes="1" speed="27.78" disallow="tram rail_urban rail rail_electric rail_fast ship container cable_car subway aircraft wheelchair scooter drone" />
    <edge id="-338648528#11" from="7506778514" to="7505685527" priority="11" type="highway.secondary" numLanes="1" speed="27.78" disallow="tram rail_urban rail rail_electric rail_fast ship container cable_car subway aircraft wheelchair scooter drone" />
    <edge id="-338648528#12" from="304987303" to="7506778514" priority="11" type="highway.secondary" numLanes="1" speed="27.78" disallow="tram rail_urban rail rail_electric rail_fast ship container cable_car subway aircraft wheelchair scooter drone" />
    <edge id="-338648528#2" from="7951559926" to="9656654035" priority="11" type="highway.secondary" numLanes="1" speed="27.78" shape="1817.50,1332.57 1858.03,1364.04 1900.34,1412.78 1911.60,1424.72" disallow="tram rail_urban rail rail_electric rail_fast ship container cable_car subway aircraft wheelchair scooter drone" />
    <edge id="-338648528#3" from="304987300" to="7951559926" priority="11" type="highway.secondary" numLanes="1" speed="27.78" disallow="tram rail_urban rail rail_electric rail_fast ship container cable_car subway aircraft wheelchair scooter drone" />
    <edge id="-338648528#4" from="3508312326" to="304987300" priority="11" type="highway.secondary" numLanes="1" speed="27.78" shape="1615.76,1260.11 1646.41,1263.54 1693.02,1274.75 1752.49,1297.80 1794.84,1318.08" disallow="tram rail_urban rail rail_electric rail_fast ship container cable_car subway aircraft wheelchair scooter drone" />
    <edge id="-338648528#5" from="3520762727" to="3508312326" priority="11" type="highway.secondary" numLanes="1" speed="27.78" disallow="tram rail_urban rail rail_electric rail_fast ship container cable_car subway aircraft wheelchair scooter drone" />
    <edge id="-338648528#6" from="3520762736" to="3520762727" priority="11" type="highway.secondary" numLanes="1" speed="27.78" shape="1565.37,1250.58 1575.90,1254.84 1587.72,1256.58 1597.19,1258.56" disallow="tram rail_urban rail rail_electric rail_fast ship container cable_car subway aircraft wheelchair scooter drone" />
    <edge id="-338648528#7" from="7506778515" to="3520762736" priority="11" type="highway.secondary" numLanes="1" speed="27.78" disallow="tram rail_urban rail rail_electric rail_fast ship container cable_car subway aircraft wheelchair scooter drone" />
    <edge id="-338648528#8" from="7506778548" to="7506778515" priority="11" type="highway.secondary" numLanes="1" speed="27.78" disallow="tram rail_urban rail rail_electric rail_fast ship container cable_car subway aircraft wheelchair scooter drone" />
    <edge id="-338648528#9" from="11207546588" to="7506778548" priority="11" type="highway.secondary" numLanes="1" speed="27.78" disallow="tram rail_urban rail rail_electric rail_fast ship container cable_car subway aircraft wheelchair scooter drone" />
    <edge id="-344074132#0" from="11187715054" to="2699642389" priority="3" type="highway.residential" numLanes="1" speed="13.89" shape="1901.50,822.50 1905.89,814.87 1924.77,765.22 1948.29,748.12 1959.76,701.62 1970.45,683.17 1995.63,651.78 2030.54,608.23 2032.90,586.24 2032.17,543.50 2040.34,520.30 2044.51,508.47 2045.75,504.92 2048.54,496.99 2056.60,474.10 2085.94,450.98 2111.46,418.90 2122.58,378.14 2127.93,371.95 2144.55,352.74 2167.43,335.32 2182.73,331.92 2194.10,329.40 2210.47,330.44 2225.89,327.97 2239.74,320.07 2255.05,275.50 2310.36,211.32 2355.41,191.04 2373.99,182.68 2416.07,178.44 2440.31,146.99 2470.33,100.49 2482.12,82.22 2488.52,72.30 2516.95,37.69 2541.09,0.00" disallow="tram rail_urban rail rail_electric rail_fast ship container cable_car subway aircraft wheelchair scooter drone" />
    <edge id="-344074132#1" from="3520766136" to="11187715054" priority="3" type="highway.residential" numLanes="1" speed="13.89" shape="1818.13,906.81 1828.73,897.28 1856.82,869.78 1875.07,855.86 1884.54,847.03 1894.55,834.59 1901.50,822.50" disallow="tram rail_urban rail rail_electric rail_fast ship container cable_car subway aircraft wheelchair scooter drone" />
    <edge id="-344074132#2" from="3508312315" to="3520766136" priority="3" type="highway.residential" numLanes="1" speed="13.89" shape="1808.49,947.24 1813.77,920.15 1818.13,906.81" disallow="tram rail_urban rail rail_electric rail_fast ship container cable_car subway aircraft wheelchair scooter drone" />
    <edge id="-344074132#3" from="3508312319" to="3508312315" priority="3" type="highway.residential" numLanes="1" speed="13.89" shape="1792.22,1046.59 1795.96,1039.66 1800.39,1032.58 1804.15,1011.78 1805.80,985.31 1809.18,959.58 1808.49,947.24" disallow="tram rail_urban rail rail_electric rail_fast ship container cable_car subway aircraft wheelchair scooter drone" />