<?xml version="1.0" encoding="UTF-8"?>

<!-- generated on 2026-03-17 22:16:25 by Eclipse SUMO duarouter Version 1.24.0
<duarouterConfiguration xmlns:xsi="http://www.w3.org/2001/XMLSchema-instance" xsi:noNamespaceSchemaLocation="http://sumo.dlr.de/xsd/duarouterConfiguration.xsd">

    <input>
        <net-file value="map.net.xml"/>
        <route-files value="raw_trips.trips.xml"/>
    </input>

    <output>
        <output-file value="simulation.rou.xml"/>
    </output>

    <report>
        <no-warnings value="true"/>
        <ignore-errors value="true"/>
        <no-step-log value="true"/>
    </report>

</duarouterConfiguration>
-->

<routes xmlns:xsi="http://www.w3.org/2001/XMLSchema-instance" xsi:noNamespaceSchemaLocation="http://sumo.dlr.de/xsd/routes_file.xsd">
    <vType id="car" length="5.00" maxSpeed="50.00" accel="2.6" decel="4.5" sigma="0.5"/>
    <vehicle id="veh0" type="car" depart="0.00">
        <route edges="-265229350#3 265229350#3 265229350#4 265229350#5 265229350#6 265229350#7 265229350#8 265229350#9 1458156154 1458156153#0 1458156153#1 1458156153#2 -1459998823#7 -1459998823#6 -1459998823#5 -1459998823#4 -1459998823#3 -1459998823#2 1459998823#2"/>
    </vehicle>
    <vehicle id="veh1" type="car" depart="0.50">
        <route edges="-338648528#6 338648528#6 338648528#7 338648528#8 338648528#9 338648528#10 338648528#11 338648528#12 802516064 802516063"/>
    </vehicle>
    <vehicle id="veh2" type="car" depart="1.00">
        <route edges="-344129938#3 344129938#3 344130935 344126024#2 1377702599 -1377702599"/>
    </vehicle>
    <vehicle id="veh3" type="car" depart="1.50">
        <route edges="1377702598#1 -1377702598#1 -345387882 344126029#0 344126029#1 344126029#2 344126029#3 344126029#4 344126029#5 344126032 -1459998823#7 -1459998823#6 -1459998823#5 -1459998823#4 -1459998823#3 -1459998823#2 -1459998823#1 -1459998823#0 1458334191#0 1458334191#1 1458334191#2 344215905#0 -344215905#0"/>
    </vehicle>
    <vehicle id="veh4" type="car" depart="2.00">
        <route edges="749406407#0 749407285"/>
    </vehicle>
    <vehicle id="veh5" type="car" depart="2.50">
        <route edges="-344126029#5 344126029#5 344126032 -1459998823#7 -1459998823#6 -1459998823#5 -1459998823#4 -1459998823#3 -1459998823#2 -1459998823#1 -1459998823#0 122488406#0 749406407#0 749406407#1 -802399779#1 -802399779#0"/>
    </vehicle>
    <vehicle id="veh6" type="car" depart="3.00">
        <route edges="-344215905#3 -344215905#2 -344215905#1 -344215905#0 -1458334191#2 -1458334191#1 -1458334191#0 1459998823#0 1459998823#1 1459998823#2 1459998823#3 1459998823#4 1459998823#5 1459998823#6 1459998823#7 1458334192 1458224698 765389291 1458339974 802516064"/>
    </vehicle>
    <vehicle id="veh7" type="car" depart="3.50">
        <route edges="-1377702598#0 1377702598#0 -345387882 344126029#0 344126029#1 344126029#2 344126029#3 344126029#4 344126029#5 344126032 -1458156153#2 -1458156153#1 -1458156153#0"/>
    </vehicle>
    <vehicle id="veh8" type="car" depart="4.00">
        <route edges="-746834592#0 -344215905#3 -344215905#2 -344215905#1 -344215905#0 -1458334191#2 -1458334191#1 -1458334191#0 122488406#0 122488406#1 122488406#2 122488406#3"/>
    </vehicle>
    <vehicle id="veh9" type="car" depart="4.50">
        <route edges="-802516073 338648528#9 338648528#10 338648528#11 338648528#12 802516064 802516063 802516062 -1458334192 -1458156153#2 743160793#0 743160793#1 -743160793#1"/>
    </vehicle>
    <vehicle id="veh10" type="car" depart="5.00">
        <route edges="-1209732955 344126032 1458334192 1458224698 765389291 1458339974 -338648528#12 -338648528#11 -338648528#10 -338648528#9 -338648528#8"/>
    </vehicle>
    <vehicle id="veh11" type="car" depart="5.50">
        <route edges="-344126032 344126032 -1458156153#2 -1458156153#1 -1458156153#0 -1458156154 -265229350#9 265229350#9 1458156154"/>
    </vehicle>
    <vehicle id="veh12" type="car" depart="6.00">
        <route edges="-1459998823#6 1459998823#6 1459998823#7 1458334192 1458224698 765389291 1458339974 -338648528#12 -338648528#11 -338648528#10 -338648528#9 -338648528#8 -338648528#7 -338648528#6 -338648528#5 -338648528#4 -338648528#3 847580334#0 930291020#0 -1082081940"/>
    </vehicle>
    <vehicle id="veh13" type="car" depart="6.50">
        <route edges="1458224698 765389291 1458339974 802516064 802516063 802516062 -1458334192 -1459998823#7 -1459998823#6 -1459998823#5 -1459998823#4 -1459998823#3 -1459998823#2 -1459998823#1 -1459998823#0 122488406#0 122488406#1 122488406#2 122488406#3 122488406#4"/>
    </vehicle>
    <vehicle id="veh14" type="car" depart="7.00">
        <route edges="-749697301 -746560520#1 -746560520#0 -122488406#3 -122488406#2 -122488406#1 -122488406#0 1459998823#0 1459998823#1 1459998823#2 1459998823#3 1209729506 -1209729506"/>
    </vehicle>
    <vehicle id="veh15" type="car" depart="7.50">
        <route edges="-802386806#1 -802386806#0 -746560520#0 -122488406#3 -122488406#2 -122488406#1 -122488406#0 1459998823#0 -802399772 802516059#0"/>
    </vehicle>
    <vehicle id="veh16" type="car" depart="8.00">
        <route edges="1209728804 -1209728804 -802516067#0 265229350#7 265229350#8 265229350#9 1458156154 1458156153#0 1458156153#1 1458156153#2 -344126032 -344126029#5 -344126029#4 -344126029#3 344126029#3"/>
    </vehicle>
    <vehicle id="veh17" type="car" depart="8.50">
        <route edges="-338648528#3 338648528#3 338648528#4 338648528#5 338648528#6 338648528#7 338648528#8 338648528#9 338648528#10 338648528#11 338648528#12 802516064 802516063 802516062 -1458334192 -344126032 -344126029#5 -344126029#4 344126028#0 -802412032#1 -802412032#0 344129938#2 344129938#3 344130935"/>
    </vehicle>
    <vehicle id="veh18" type="car" depart="9.00">
        <route edges="802399773 -802399773 802516059#0 802516059#1 1459998823#7 1458334192 1458224698 765389291 1458339974 -338648528#12 -338648528#11 -338648528#10 -338648528#9 -338648528#8 -338648528#7 345390443#0 345390443#1"/>
    </vehicle>
    <vehicle id="veh19" type="car" depart="9.50">
        <route edges="-802486170#1 802486170#1 1050839641 1458438168"/>
    </vehicle>
    <vehicle id="veh20" type="car" depart="10.00">
        <route edges="-1458334191#0 122488406#0 122488406#1 122488406#2 122488406#3 746560520#0 746560520#1 746560520#2 746560519#0 746560519#1"/>
    </vehicle>
    <vehicle id="veh21" type="car" depart="10.50">
        <route edges="-345391009#0 344074132#2 344074132#3 1458156155 345391008#0 345391008#1 345391008#2 338648528#5 338648528#6 338648528#7 338648528#8 338648528#9 338648528#10 338648528#11 338648528#12 802516064 802516063 802516062 -1458334192 -1458156153#2 -1458156153#1 -1458156153#0 -1458156154 -265229350#9 749653881#0 749653881#1"/>
    </vehicle>
    <vehicle id="veh22" type="car" depart="11.00">
        <route edges="-345391009#2 -345391009#1 -345391009#0 344074132#2 344074132#3 1458156155 345391008#0 345391008#1 345391008#2 338648528#5 338648528#6 338648528#7 338648528#8 338648528#9 338648528#10 338648528#11 338648528#12 802516064 802516063 802516062 -1458334192 -344126032 -344126029#5 -344126029#4 -344126029#3 344126029#3"/>
    </vehicle>
    <vehicle id="veh23" type="car" depart="11.50">
        <route edges="-344215905#2 -344215905#1 -344215905#0 -1458334191#2 -1458334191#1 -1458334191#0 122488406#0 122488406#1 122488406#2 745591121#0 745591121#1 -745591121#1"/>
    </vehicle>
    <vehicle id="veh24" type="car" depart="12.00">
        <route edges="930291019#1 -847580334#1 -847580334#0 338648528#3 338648528#4 338648528#5 338648528#6 338648528#7 338648528#8 338648528#9 338648528#10 338648528#11 338648528#12 802516064 802516063 802516062 -1458334192 -1459998823#7 -1459998823#6 -1459998823#5"/>
    </vehicle>
    <vehicle id="veh25" type="car" depart="12.50">
        <route edges="746560519#1 746560519#2 -746560519#2 -746560519#1 -746560519#0 -746560520#2 -746560520#1 -746560520#0 -122488406#3 -122488406#2 -122488406#1 -122488406#0 1459998823#0 1459998823#1 1459998823#2 1459998823#3 1459998823#4 1459998823#5 1459998823#6 1459998823#7 -1458156153#2 -1458156153#1 -1458156153#0 -1458156154 -265229350#9 -265229350#8 -265229350#7 -265229350#6 -265229350#5 -1458156149#1 -1458156149#0"/>
    </vehicle>
    <vehicle id="veh26" type="car" depart="13.00">
        <route edges="-749653881#1 -749653881#0 265229350#9 1458156154 1458156153#0 1458156153#1 1458156153#2 -1459998823#7 -1459998823#6 -1459998823#5 -1459998823#4 -1459998823#3 -1459998823#2 -1459998823#1 -1459998823#0 1458334191#0 1458334191#1 1458334191#2 1458334191#3 1458334191#4"/>
    </vehicle>
    <vehicle id="veh27" type="car" depart="13.50">
        <route edges="-345390444 345391008#2 338648528#5 338648528#6 338648528#7 338648528#8 338648528#9 338648528#10"/>
    </vehicle>
    <vehicle id="veh28" type="car" depart="14.00">
        <route edges="338648528#8 338648528#9 338648528#10 338648528#11 338648528#12 802516064 802516063 802516062 -1458334192 -1459998823#7 -802516059#1 -802516059#0 802399773 -802399774#2 802399774#2"/>
    </vehicle>
    <vehicle id="veh29" type="car" depart="14.50">
        <route edges="1459998823#4 1459998823#5 1459998823#6 1459998823#7 -1458156153#2 -1458156153#1 -1458156153#0 -1458156154 -265229350#9 -265229350#8 -265229350#7 802516067#0 -802516067#0"/>
    </vehicle>
    <vehicle id="veh30" type="car" depart="15.00">
        <route edges="345390443#1 345390443#2 -345390443#2"/>
    </vehicle>
    <vehicle id="veh31" type="car" depart="15.50">
        <route edges="-1458236717#0 265229350#2 265229350#3 265229350#4 265229350#5 265229350#6 265229350#7 265229350#8 265229350#9 1458156154 1458156153#0 1458156153#1 1458156153#2 1458334192 1458224698 765389291 1458339974 -338648528#12 -338648528#11 -338648528#10 -338648528#9 -338648528#8 -338648528#7 906594466"/>
    </vehicle>
    <vehicle id="veh32" type="car" depart="16.00">
        <route edges="847580334#0 -847580334#0 338648528#3 338648528#4 338648528#5 338648528#6 338648528#7 338648528#8 338648528#9 338648528#10 338648528#11 338648528#12 802516064 802516063 802516062 -1458334192 -1459998823#7 -802516059#1 -802516059#0 802399773 -802399774#2 802399776"/>
    </vehicle>
    <vehicle id="veh33" type="car" depart="16.50">
        <route edges="344129938#1 802412032#0 802412032#1 -344126028#0 344126029#4 344126029#5 344126032 1458334192 1458224698 765389291 1458339974 -338648528#12 -338648528#11 -338648528#10 -338648528#9 -338648528#8 -338648528#7 -338648528#6 -338648528#5 -345391008#2 345390444"/>
    </vehicle>
    <vehicle id="veh34" type="car" depart="17.00">
        <route edges="-344129938#1 344129938#1 344129938#2 344129938#3 344130935 344126024#2 344126024#3"/>
    </vehicle>
    <vehicle id="veh35" type="car" depart="17.50">
        <route edges="746834592#0 -746834592#0 -344215905#3 -344215905#2 -344215905#1 -344215905#0 -1458334191#2 -1458334191#1 344126024#0 344126024#1 344126024#2 1377702599"/>
    </vehicle>
    <vehicle id="veh36" type="car" depart="18.00">
        <route edges="802516059#1 1459998823#7 -1458156153#2 -1458156153#1 -1458156153#0 -1458156154 -265229350#9 -265229350#8 -265229350#7 802516067#0 1209728804"/>
    </vehicle>
    <vehicle id="veh37" type="car" depart="18.50">
        <route edges="345390447#1 -345390447#1 -345390447#0 1458156155 345391008#0 345391008#1 345391008#2 338648528#5 338648528#6 338648528#7 338648528#8 338648528#9 338648528#10 338648528#11 338648528#12 802516064 802516063 802516062 -1458334192 -1458156153#2 -1458156153#1 -1458156153#0 -1458156154 -265229350#9 -265229350#8 -265229350#7 -265229350#6 -265229350#5 -265229350#4 1458156148"/>
    </vehicle>
    <vehicle id="veh38" type="car" depart="19.00">
        <route edges="802412032#0 802412032#1 -344126028#0 344126029#4 344126029#5 344126032 -1458156153#2 -1458156153#1 -1458156153#0 -1458156154 -265229350#9 -265229350#8 -265229350#7"/>
    </vehicle>
    <vehicle id="veh39" type="car" depart="19.50">
        <route edges="-338648528#7 338648528#7 338648528#8 338648528#9 338648528#10 338648528#11 338648528#12 802516064 802516063 802516062 -1458334192 -1459998823#7 -802516059#1 -802516059#0 802399773 -802399774#2 -802399774#1 -802399774#0 -802399777#1"/>
    </vehicle>
    <vehicle id="veh40" type="car" depart="20.00">
        <route edges="1377702598#1 -1377702598#1 -345387882 344126029#0 344126029#1 344126029#2 344126029#3 344126029#4 344126029#5 344126032 -1459998823#7 -1459998823#6 -1459998823#5 -1459998823#4 -1459998823#3 -1459998823#2 -1459998823#1 -1459998823#0 1458334191#0 1458334191#1 -1458334191#1"/>
    </vehicle>
    <vehicle id="veh41" type="car" depart="20.50">
        <route edges="-344126024#4 -344126024#3 -344126024#2 -344126024#1 802765343 344126029#7 -1459998823#5 -1459998823#4 -1459998823#3 -1459998823#2 -1459998823#1 -1459998823#0 122488406#0 122488406#1 122488406#2 745591121#0 802399779#0 802399779#1 -749406407#1"/>
    </vehicle>
    <vehicle id="veh42" type="car" depart="21.00">
        <route edges="-749697301 -746560520#1 -746560520#0 -122488406#3 -122488406#2 -122488406#1 -122488406#0 1459998823#0 1459998823#1 1459998823#2 1459998823#3 1459998823#4 1459998823#5 1459998823#6 1459998823#7 1458334192 1458224698 765389291 1458339974 -338648528#12 -338648528#11 -338648528#10 -338648528#9 -338648528#8 -338648528#7 -338648528#6 338648528#6"/>
    </vehicle>
    <vehicle id="veh43" type="car" depart="21.50">
        <route edges="-749407285 -749406407#0 -122488406#0 1459998823#0 1459998823#1 1459998823#2 1459998823#3 1459998823#4 1459998823#5 1459998823#6 1459998823#7 1458334192 1458224698 765389291 1458339974 -338648528#12 -338648528#11 -338648528#10 -338648528#9 -338648528#8 -338648528#7 -338648528#6 -338648528#5 -338648528#4 -338648528#3 -338648528#2 -338648528#1 930291019#0 930291021 -930291021"/>
    </vehicle>
    <vehicle id="veh44" type="car" depart="22.00">
        <route edges="-802516074#1 -802516073 -338648528#8 -338648528#7 -338648528#6 -338648528#5 -345391008#2 -345391008#1 -345391008#0 -1458156155 345390447#0 747751315 -747751315"/>
    </vehicle>
    <vehicle id="veh45" type="car" depart="22.50">
        <route edges="1459114486 -1459114486 -743160793#3 -743160793#2 -743160793#1 -743160793#0 1458156153#2 1458334192 1458224698 765389291 1458339974 -338648528#12 -338648528#11 -338648528#10 -338648528#9 -338648528#8 -338648528#7 -338648528#6 -338648528#5 -345391008#2 -345391008#1 -345391008#0 -1458156155 -344074132#3 -344074132#2 344074132#2"/>
    </vehicle>
    <vehicle id="veh46" type="car" depart="23.00">
        <route edges="802399798#1 802399798#2"/>
    </vehicle>
    <vehicle id="veh47" type="car" depart="23.50">
        <route edges="-802516069 802516069 338648528#12 802516064 802516063 802516062 -1458334192 -1459998823#7 -1459998823#6 -1459998823#5 1459998823#5"/>
    </vehicle>
    <vehicle id="veh48" type="car" depart="24.00">
        <route edges="-802486164 802486170#1 1050839641 1458438168 -745197852#1 -745197852#0 265229350#6 265229350#7 265229350#8 265229350#9 1458156154 1458156153#0 1458156153#1 1458156153#2 -344126032 -344126029#5"/>
    </vehicle>
    <vehicle id="veh49" type="car" depart="24.50">
        <route edges="344126029#2 344126029#3 344126029#4 344126029#5 344126032 -1459998823#7 -802516059#1 -802516059#0 802399773 -802399774#2 -802399774#1 802399774#1"/>
    </vehicle>
    <vehicle id="veh50" type="car" depart="25.00">
        <route edges="344126032 -1459998823#7 -1459998823#6 -1459998823#5 -1459998823#4 -1459998823#3 -1459998823#2 -1459998823#1 -1459998823#0 1459998823#0"/>
    </vehicle>
    <vehicle id="veh51" type="car" depart="25.50">
        <route edges="-746560520#0 -122488406#3 -122488406#2 -122488406#1 -122488406#0 1459998823#0 1459998823#1 1459998823#2 1459998823#3 1459998823#4 1459998823#5 1459998823#6 1459998823#7 1458334192 1458224698 765389291 1458339974 -338648528#12 -338648528#11 802399783 -802399783"/>
    </vehicle>
    <vehicle id="veh52" type="car" depart="26.00">
        <route edges="-1458334191#0 1459998823#0 1459998823#1 1459998823#2 1459998823#3 1459998823#4 1459998823#5 1459998823#6 1459998823#7 1458334192 1458224698 765389291 1458339974 -338648528#12 -338648528#11 -338648528#10 -338648528#9 -338648528#8 -338648528#7 -338648528#6 -338648528#5 -338648528#4 -338648528#3 847580334#0"/>
    </vehicle>
    <vehicle id="veh53" type="car" depart="26.50">
        <route edges="-802399798#1 802399799 -746834592#2 -746834592#1 -746834592#0 -344215905#3 -344215905#2 -344215905#1 -344215905#0 -1458334191#2 -1458334191#1 -1458334191#0 1459998823#0 1459998823#1 1459998823#2 1459998823#3 1459998823#4 1459998823#5 1459998823#6 1459998823#7 -1458156153#2 -1458156153#1 -1458156153#0 -1458156154 -265229350#9 -265229350#8 -265229350#7 -265229350#6 -265229350#5 -265229350#4 -265229350#3 749334674 -749334674"/>
    </vehicle>
    <vehicle id="veh54" type="car" depart="27.00">
        <route edges="-338648528#4 338648528#4 338648528#5 338648528#6 338648528#7 338648528#8 338648528#9 338648528#10 338648528#11 338648528#12 802516064 802516063 802516062 -1458334192 -1458156153#2 743160793#0 743160793#1 743160793#2 -897966736"/>
    </vehicle>
    <vehicle id="veh55" type="car" depart="27.50">
        <route edges="802399777#3 -743160793#2 -743160793#1 -743160793#0 1458156153#2 1458334192 1458224698 765389291 1458339974 -338648528#12 -338648528#11 -338648528#10 -338648528#9 -338648528#8 -338648528#7 -338648528#6 -338648528#5 -345391008#2 -345391008#1 -345391008#0 -1458156155 -344074132#3 -344074132#2 345391009#0 345391009#1 345391011 -345391011"/>
    </vehicle>
    <vehicle id="veh56" type="car" depart="28.00">
        <route edges="745514053 -745514053 -1458334191#1 -1458334191#0 1459998823#0 1459998823#1 1459998823#2 1459998823#3 1459998823#4 1459998823#5 1459998823#6 1459998823#7 1458334192 1458224698 765389291 1458339974 -338648528#12 -338648528#11 -338648528#10 -338648528#9 -338648528#8 -338648528#7 345390443#0 345390443#1 345390443#2"/>
    </vehicle>
    <vehicle id="veh57" type="car" depart="28.50">
        <route edges="802399777#2 802399777#3 -743160793#2 -743160793#1 -743160793#0 -1458156153#1 -1458156153#0 -1458156154 -265229350#9 -265229350#8 -265229350#7 -265229350#6 -265229350#5 -265229350#4"/>
    </vehicle>
    <vehicle id="veh58" type="car" depart="29.00">
        <route edges="-743160793#3 -802399777#3 -802399777#2 -802399777#1 -802399777#0 -802399779#0 -745591121#0"/>
    </vehicle>
    <vehicle id="veh59" type="car" depart="29.50">
        <route edges="344126029#7 1459998823#6 1459998823#7 1458334192 1458224698 765389291 1458339974 -338648528#12 -338648528#11 -338648528#10 -338648528#9 -338648528#8 -338648528#7 345390443#0 345390443#1 -345390443#1"/>
    </vehicle>
    <vehicle id="veh60" type="car" depart="30.00">
        <route edges="802412033 -802412033 802412032#1 -344126028#0 344126029#4 344126029#5 344126032 -1458156153#2 -1458156153#1 -1458156153#0 -1458156154 -265229350#9 -265229350#8 -265229350#7 802516067#0 1209728804"/>
    </vehicle>
    <vehicle id="veh61" type="car" depart="30.50">
        <route edges="-802516061 802516061 802399777#3 743160793#3 -743160793#3"/>
    </vehicle>
    <vehicle id="veh62" type="car" depart="31.00">
        <route edges="-746560520#3 -746560520#2 -746560520#1 -746560520#0 -122488406#3 -122488406#2 -122488406#1 -122488406#0 1459998823#0 1459998823#1 1459998823#2 1459998823#3 1459998823#4 1459998823#5 1459998823#6 1459998823#7 -344126032 -344126029#5 -344126029#4 344126028#0 -802412032#1 802412033"/>
    </vehicle>
    <vehicle id="veh63" type="car" depart="31.50">
        <route edges="338648528#10 338648528#11 338648528#12 802516064 802516063 802516062 -1458334192 -1458156153#2 743160793#0 743160793#1 743160793#2 -897966736"/>
    </vehicle>
    <vehicle id="veh64" type="car" depart="32.00">
        <route edges="802399799 -746834592#2 -746834592#1 -746834592#0 -344215905#3 -344215905#2 -344215905#1 -344215905#0 -1458334191#2 -1458334191#1 344126024#0 344126024#1 344126024#2 344126024#3 -345387876 345387880"/>
    </vehicle>
    <vehicle id="veh65" type="car" depart="32.50">
        <route edges="1459998823#1 1459998823#2 1459998823#3 1459998823#4 1459998823#5 1459998823#6 -802516059#1 802516059#1"/>
    </vehicle>
    <vehicle id="veh66" type="car" depart="33.00">
        <route edges="-746560519#0 -746560520#2 -746560520#1 -746560520#0 -122488406#3 -122488406#2 -122488406#1 -122488406#0 1459998823#0 1459998823#1 1459998823#2 1459998823#3 1459998823#4 1459998823#5 1459998823#6 1459998823#7 1458334192 1458224698 765389291 1458339974 -338648528#12 -338648528#11 -338648528#10 -338648528#9 -338648528#8 -338648528#7 -338648528#6 345390442#0 345390442#1 345390442#2 345390442#3 802386809 -802386809"/>
    </vehicle>
    <vehicle id="veh67" type="car" depart="33.50">
        <route edges="802516067#0 -802516067#0 265229350#7 265229350#8 265229350#9 1458156154 1458156153#0 1458156153#1 1458156153#2 -1459998823#7 -1459998823#6 -1459998823#5 -1459998823#4 -1459998823#3 -1459998823#2 -1459998823#1 -1459998823#0 122488406#0 122488406#1 122488406#2 122488406#3 746560520#0 746560520#1 749697301"/>
    </vehicle>
    <vehicle id="veh68" type="car" depart="34.00">
        <route edges="-338648528#7 338648528#7 338648528#8 338648528#9 338648528#10 338648528#11 338648528#12 802516064 802516063 802516062 -1458334192 -1459998823#7 -1459998823#6 -344126029#7"/>
    </vehicle>
    <vehicle id="veh69" type="car" depart="34.50">
        <route edges="-1459998823#5 1459998823#5 1459998823#6 1459998823#7 -1458156153#2 -1458156153#1 -1458156153#0 -1458156154 -265229350#9 -265229350#8 -265229350#7 -265229350#6 265229350#6"/>
    </vehicle>
    <vehicle id="veh70" type="car" depart="35.00">
        <route edges="-1050839645 1050839645 -344215905#2 -344215905#1 -344215905#0 -1458334191#2 -1458334191#1 -1458334191#0 1459998823#0 -802399772 802399773 -802399774#2 -802399774#1"/>
    </vehicle>
    <vehicle id="veh72" type="car" depart="36.00">
        <route edges="-344074132#1 344074132#1 344074132#2 344074132#3 1458156155 345391008#0 345391008#1 345391008#2 338648528#5 338648528#6 338648528#7 338648528#8 338648528#9 338648528#10 338648528#11 338648528#12 802516064 802516063 802516062 -1458334192 -1459998823#7 -1459998823#6 -1459998823#5 -1459998823#4 -1459998823#3 -1459998823#2 -1459998823#1 -1459998823#0 122488406#0 122488406#1 122488406#2 122488406#3"/>
    </vehicle>
    <vehicle id="veh73" type="car" depart="36.50">
        <route edges="802516068#0 -1458236717#0 265229350#2 265229350#3 265229350#4 265229350#5 265229350#6 265229350#7 265229350#8 265229350#9 1458156154 1458156153#0 1458156153#1 1458156153#2 -1459998823#7 -1459998823#6 -1459998823#5 -1459998823#4 -1459998823#3 -1459998823#2 -1459998823#1 -1459998823#0 1458334191#0 1458334191#1 1458334191#2 344215905#0 344215905#1 344215905#2"/>
    </vehicle>
    <vehicle id="veh74" type="car" depart="37.00">
        <route edges="-345390443#1 -345390443#0 338648528#7 338648528#8 338648528#9 338648528#10 338648528#11 338648528#12 802516064 802516063 802516062 -1458334192 -1459998823#7 -1459998823#6 -1459998823#5 -1459998823#4 -1459998823#3 -1459998823#2 -1459998823#1 -1459998823#0 122488406#0 122488406#1 122488406#2 122488406#3 122488406#4 -122488406#4"/>
    </vehicle>
    <vehicle id="veh75" type="car" depart="37.50">
        <route edges="-802516068#0 802516068#0 -1458236717#0 265229350#2 265229350#3 265229350#4 265229350#5 265229350#6 265229350#7 265229350#8 265229350#9 1458156154 1458156153#0 1458156153#1 1458156153#2 1458334192 1458224698 765389291 1458339974 -338648528#12 -338648528#11 -338648528#10 -338648528#9 -338648528#8 -338648528#7 -338648528#6 -338648528#5 -345391008#2 -345391008#1 -345391008#0 -1458156155 345390447#0 747751315"/>
    </vehicle>
    <vehicle id="veh76" type="car" depart="38.00">
        <route edges="344126024#1 -344126024#1 802765343 344126029#7 1459998823#6 1459998823#7 1458334192 1458224698 765389291 1458339974 -338648528#12 -338648528#11 -338648528#10 -338648528#9 -338648528#8 -338648528#7 -338648528#6 -338648528#5 -345391008#2 -345391008#1 -345391008#0 -1458156155"/>
    </vehicle>
    <vehicle id="veh77" type="car" depart="38.50">
        <route edges="749334674 -749334674 265229350#3 265229350#4 265229350#5 265229350#6 265229350#7 265229350#8 265229350#9 1458156154 1458156153#0 1458156153#1 1458156153#2 1458334192 1458224698 765389291 1458339974 -338648528#12 -338648528#11 -338648528#10 -338648528#9 -338648528#8 -338648528#7 -338648528#6 -338648528#5 -338648528#4 -338648528#3 -338648528#2 1050839654 -1050839654"/>
    </vehicle>
    <vehicle id="veh78" type="car" depart="39.00">
        <route edges="344129938#1 802412032#0 802412032#1 -344126028#0 344126029#4 344126029#5 344126032 -1458156153#2 -1458156153#1 -1458156153#0 -1458156154 -265229350#9 749653881#0"/>
    </vehicle>
    <vehicle id="veh79" type="car" depart="39.50">
        <route edges="906594466 -906594466 338648528#7 338648528#8 338648528#9 338648528#10 338648528#11 338648528#12 802516064 802516063 802516062 -1458334192 -1459998823#7 -1459998823#6 -1459998823#5 -1459998823#4 -1459998823#3 -1459998823#2 -1459998823#1 -1459998823#0 122488406#0 122488406#1 122488406#2 122488406#3 746560520#0 746560520#1 746560520#2 746560520#3"/>
    </vehicle>
    <vehicle id="veh80" type="car" depart="40.00">
        <route edges="345390445#0 -345390445#0 345391008#1 345391008#2 338648528#5 338648528#6 338648528#7 338648528#8 338648528#9 338648528#10 338648528#11 338648528#12 802516064 802516063 802516062 -1458334192 -1459998823#7 -802516059#1 -802516059#0 -802399775 -802399777#0"/>
    </vehicle>
    <vehicle id="veh81" type="car" depart="40.50">
        <route edges="338648528#6 -338648528#6 -338648528#5 -345391008#2 -345391008#1 345391008#1"/>
    </vehicle>
    <vehicle id="veh82" type="car" depart="41.00">
        <route edges="-746834592#3 -746834592#2 -746834592#1 -746834592#0 -344215905#3 -344215905#2 -344215905#1 -344215905#0 -1458334191#2 -1458334191#1 -1458334191#0 1459998823#0 1459998823#1 1459998823#2 1459998823#3 1459998823#4 1459998823#5 1459998823#6 1459998823#7 -1458156153#2 -1458156153#1 -1458156153#0 -1458156154 -265229350#9 265229350#9 1458156154"/>
    </vehicle>
    <vehicle id="veh83" type="car" depart="41.50">
        <route edges="-1459114486 743160793#4 -1458236717#1 -1458236717#0 265229350#2 265229350#3 265229350#4 265229350#5 265229350#6 265229350#7 265229350#8 265229350#9"/>
    </vehicle>
    <vehicle id="veh84" type="car" depart="42.00">
        <route edges="802516068#0 -1458236717#0 265229350#2 265229350#3 265229350#4 265229350#5 745197852#0 745197852#1 802486169#0 -802486169#0"/>
    </vehicle>
    <vehicle id="veh85" type="car" depart="42.50">
        <route edges="802516069 -338648528#11 -338648528#10 -338648528#9 -338648528#8 -338648528#7 -338648528#6 345390442#0 345390442#1 -345390442#1"/>
    </vehicle>
    <vehicle id="veh86" type="car" depart="43.00">
        <route edges="746834592#1 -746834592#1 -746834592#0 -344215905#3 -344215905#2 -344215905#1 -344215905#0 -1458334191#2 -1458334191#1 -1458334191#0 1459998823#0 1459998823#1 1459998823#2 1459998823#3 1459998823#4 1459998823#5 1459998823#6 1459998823#7 1458334192 1458224698 765389291 1458339974 -338648528#12 -338648528#11 -338648528#10 -338648528#9 -338648528#8 -338648528#7 -338648528#6 345390442#0 345390442#1 345390442#2 802486171 -802486171"/>
    </vehicle>
    <vehicle id="veh87" type="car" depart="43.50">
        <route edges="-1209728804 -802516067#0 265229350#7 265229350#8 265229350#9 1458156154 1458156153#0 1458156153#1 1458156153#2 1458334192 1458224698 765389291 1458339974 -338648528#12 -338648528#11 -338648528#10 -338648528#9 -338648528#8 -338648528#7 -338648528#6 -338648528#5 -338648528#4 -338648528#3 -338648528#2 -338648528#1 930291019#0 -930291019#0"/>
    </vehicle>
    <vehicle id="veh88" type="car" depart="44.00">
        <route edges="345390445#0 -345390445#0 345391008#1 345391008#2 338648528#5 338648528#6 338648528#7 338648528#8 338648528#9 338648528#10 338648528#11 338648528#12 802516064 802516063 802516062 -1458334192 -1459998823#7 -802516059#1 -802516059#0 802399772"/>
    </vehicle>
    <vehicle id="veh89" type="car" depart="44.50">
        <route edges="-802516067#1 -802516067#0 265229350#7 265229350#8 265229350#9 1458156154 1458156153#0 1458156153#1 1458156153#2 1458334192 1458224698 765389291 1458339974 -338648528#12 -338648528#11 -338648528#10 -338648528#9 -338648528#8 -338648528#7 -338648528#6"/>
    </vehicle>
    <vehicle id="veh90" type="car" depart="45.00">
        <route edges="802486164 -802486164 802486170#1 1050839641 1458438168 -745197852#1 -745197852#0 265229350#6 265229350#7 265229350#8 265229350#9 1458156154 1458156153#0 1458156153#1 1458156153#2 1458334192 1458224698 765389291 1458339974 -338648528#12 -338648528#11 -338648528#10 -338648528#9 -338648528#8 -338648528#7 -338648528#6 -338648528#5 -338648528#4 -338648528#3 -338648528#2 -338648528#1 -338648528#0 338648528#0"/>
    </vehicle>
    <vehicle id="veh91" type="car" depart="45.50">
        <route edges="-802765343 802765343 344126029#7 1459998823#6 1459998823#7 1458334192 1458224698 765389291 1458339974 -338648528#12 -338648528#11 -338648528#10 -338648528#9 -338648528#8 -338648528#7 -338648528#6 -338648528#5 -345391008#2 -345391008#1 -345391008#0 -1458156155 345390447#0"/>
    </vehicle>
    <vehicle id="veh92" type="car" depart="46.00">
        <route edges="749653880 -749653880 -749653881#0 265229350#9 1458156154 1458156153#0 1458156153#1 1458156153#2 -344126032 -344126029#5 -344126029#4 -344126029#3 344126029#3"/>
    </vehicle>
    <vehicle id="veh93" type="car" depart="46.50">
        <route edges="-930291020#0 -847580334#0 338648528#3 338648528#4 338648528#5 338648528#6 906594466"/>
    </vehicle>
    <vehicle id="veh94" type="car" depart="47.00">