<?xml version="1.0" encoding="UTF-8"?>

<!-- generated on 2026-03-18 00:13:17 by Eclipse SUMO netconvert Version 1.24.0
<netconvertConfiguration xmlns:xsi="http://www.w3.org/2001/XMLSchema-instance" xsi:noNamespaceSchemaLocation="http://sumo.dlr.de/xsd/netconvertConfiguration.xsd">

    <input>
        <sumo-net-file value="map.net.xml"/>
    </input>

    <output>
        <plain-output-prefix value="map_plain"/>
    </output>

    <processing>
        <geometry.min-radius.fix.railways value="false"/>
        <geometry.avoid-overlap value="false"/>
        <geometry.max-grade.fix value="false"/>
        <offset.disable-normalization value="true"/>
        <lefthand value="0"/>
    </processing>

    <junctions>
        <no-turnarounds value="true"/>
        <junctions.corner-detail value="5"/>
        <junctions.limit-turn-speed value="5.50"/>
        <rectangular-lane-cut value="0"/>
    </junctions>

    <pedestrian>
        <walkingareas value="0"/>
    </pedestrian>

</netconvertConfiguration>
-->

<nodes version="1.20" xmlns:xsi="http://www.w3.org/2001/XMLSchema-instance" xsi:noNamespaceSchemaLocation="http://sumo.dlr.de/xsd/nodes_file.xsd">
    <location netOffset="-719257.86,-939950.39" convBoundary="0.00,0.00,3100.01,3029.42" origBoundary="76.977119,8.478500,77.030880,8.576337" projParameter="+proj=utm +zone=43 +ellps=WGS84 +datum=WGS84 +units=m +no_defs"/>

    <node id="10130220376" x="1550.24" y="717.67" type="priority"/>
    <node id="10130220377" x="1374.70" y="827.27" type="priority"/>
    <node id="10130220378" x="1388.44" y="743.34" type="priority"/>
    <node id="11160696491" x="1994.23" y="921.24" type="priority"/>
    <node id="11160712452" x="1760.16" y="1213.88" type="priority"/>
    <node id="11187592865" x="647.15" y="837.49" type="priority"/>
    <node id="11187592866" x="663.83" y="816.24" type="priority"/>
    <node id="11187715047" x="2104.16" y="768.71" type="priority"/>
    <node id="11187715054" x="1901.50" y="822.50" type="priority"/>
    <node id="11207517932" x="859.29" y="973.80" type="priority"/>
    <node id="11207517933" x="861.16" y="1024.79" type="priority"/>
    <node id="11207531469" x="921.69" y="928.47" type="priority"/>
    <node id="11207533233" x="1277.84" y="1508.72" type="priority"/>
    <node id="11207539371" x="1239.94" y="1316.32" type="priority"/>
    <node id="11207546587" x="1437.76" y="1307.18" type="priority"/>
    <node id="11207546588" x="1463.78" y="1218.79" type="priority"/>
    <node id="11207555224" x="1434.48" y="1118.78" type="priority"/>
    <node id="11207569964" x="938.85" y="981.02" type="priority"/>
    <node id="11207569965" x="948.23" y="913.87" type="priority"/>
    <node id="11207570082" x="1157.20" y="1169.31" type="priority"/>
    <node id="11207570084" x="1175.65" y="1141.38" type="priority"/>
    <node id="11207591624" x="871.11" y="974.16" type="priority"/>
    <node id="11207591625" x="860.95" y="917.97" type="priority"/>
    <node id="11207605356" x="1154.84" y="948.75" type="priority"/>
    <node id="11209397046" x="602.70" y="1512.70" type="priority"/>
    <node id="11209397047" x="649.02" y="1512.00" type="priority"/>
    <node id="11209405601" x="654.96" y="1542.65" type="priority"/>
    <node id="11209405603" x="721.56" y="1550.36" type="priority"/>
    <node id="11209467305" x="1176.06" y="925.70" type="priority"/>
    <node id="12086781735" x="610.49" y="913.10" type="priority"/>
    <node id="12086781739" x="680.98" y="1004.74" type="priority"/>
    <node id="12086781740" x="654.38" y="953.44" type="priority"/>
    <node id="12756682171" x="1012.69" y="755.34" type="priority"/>
    <node id="13372874940" x="1064.09" y="1384.59" type="priority"/>
    <node id="13372874971" x="1180.17" y="1267.76" type="priority"/>
    <node id="13372874990" x="1787.67" y="1053.47" type="priority"/>
    <node id="13375517596" x="1200.91" y="1327.20" type="priority"/>
    <node id="13375517599" x="1221.79" y="1301.15" type="priority"/>
    <node id="13375558054" x="1078.48" y="1541.42" type="priority"/>
    <node id="13375988526" x="1214.40" y="1214.39" type="priority"/>
    <node id="13376010243" x="1402.25" y="1436.70" type="priority"/>
    <node id="13381925611" x="1041.98" y="1565.51" type="priority"/>
    <node id="1368663999" x="310.37" y="1241.04" type="priority"/>
    <node id="2156121247" x="0.00" y="384.57" type="priority"/>
    <node id="2699642389" x="2541.09" y="0.00" type="priority"/>
    <node id="2708929876" x="60.44" y="3029.42" type="priority"/>
    <node id="2708930067" x="1091.44" y="1656.60" type="priority"/>
    <node id="2708930075" x="1133.77" y="1551.47" type="priority"/>
    <node id="2708930090" x="1181.74" y="1273.41" type="priority"/>
    <node id="304987300" x="1794.84" y="1318.08" type="priority"/>
    <node id="304987303" x="1338.99" y="1191.94" type="priority"/>
    <node id="304987306" x="1216.27" y="1094.39" type="priority"/>
    <node id="304987310" x="1137.12" y="1066.51" type="priority"/>
    <node id="304987315" x="946.50" y="983.84" type="priority"/>
    <node id="304987316" x="923.93" y="978.33" type="priority"/>
    <node id="304987317" x="766.49" y="961.65" type="priority"/>
    <node id="304987319" x="722.28" y="930.33" type="priority"/>
    <node id="304987320" x="682.09" y="883.47" type="priority"/>
    <node id="304987321" x="663.14" y="850.92" type="priority"/>
    <node id="3508312315" x="1808.49" y="947.24" type="priority"/>
    <node id="3508312319" x="1792.22" y="1046.59" type="priority"/>
    <node id="3508312325" x="1616.59" y="1222.05" type="priority"/>
    <node id="3508312326" x="1615.76" y="1260.11" type="priority"/>
    <node id="3508835201" x="1072.60" y="711.52" type="priority"/>
    <node id="3508835203" x="1071.66" y="756.31" type="priority"/>
    <node id="3508835206" x="1511.91" y="795.19" type="priority"/>
    <node id="3508835212" x="1436.60" y="835.73" type="priority"/>
    <node id="3508835216" x="1332.08" y="876.60" type="priority"/>
    <node id="3508835222" x="1394.47" y="891.63" type="priority"/>
    <node id="3508835227" x="1203.32" y="951.63" type="priority"/>
    <node id="3508835239" x="1274.59" y="991.57" type="priority"/>
    <node id="3508835243" x="1143.83" y="1019.18" type="priority"/>
    <node id="3508835249" x="1219.55" y="1052.57" type="priority"/>
    <node id="3508881551" x="1158.24" y="825.74" type="priority"/>
    <node id="3508891148" x="1024.19" y="803.95" type="priority"/>
    <node id="3508891150" x="1243.95" y="762.98" type="priority"/>
    <node id="3509658898" x="777.57" y="868.21" type="priority"/>
    <node id="3509658901" x="919.01" y="810.18" type="priority"/>
    <node id="3520745169" x="1449.92" y="746.73" type="priority"/>
    <node id="3520745172" x="1521.89" y="775.75" type="priority"/>
    <node id="3520745173" x="1459.68" y="843.60" type="priority"/>
    <node id="3520745176" x="1492.32" y="886.92" type="priority"/>
    <node id="3520762725" x="1288.33" y="1090.99" type="priority"/>
    <node id="3520762727" x="1597.19" y="1258.56" type="priority"/>
    <node id="3520762731" x="1584.21" y="1342.92" type="priority"/>
    <node id="3520762736" x="1565.37" y="1250.58" type="priority"/>
    <node id="3520762745" x="1577.44" y="1007.60" type="priority"/>
    <node id="3520762752" x="1568.64" y="1087.42" type="priority"/>
    <node id="3520762753" x="1713.29" y="1216.08" type="priority"/>
    <node id="3520762761" x="1888.37" y="1251.37" type="priority"/>
    <node id="3520762765" x="1791.72" y="1166.92" type="priority"/>
    <node id="3520762775" x="1977.49" y="1074.81" type="priority"/>
    <node id="3520763220" x="3100.01" y="465.99" type="priority"/>
    <node id="3520766136" x="1818.13" y="906.81" type="priority"/>
    <node id="3520766147" x="1718.98" y="618.94" type="priority"/>
    <node id="3520766148" x="1796.32" y="767.63" type="priority"/>
    <node id="3520766151" x="1680.51" y="763.24" type="priority"/>
    <node id="3520766152" x="1791.25" y="821.00" type="priority"/>
    <node id="3520766155" x="1667.29" y="827.22" type="priority"/>
    <node id="356670719" x="3077.30" y="1788.82" type="priority"/>
    <node id="4476575717" x="444.56" y="1966.62" type="priority"/>
    <node id="6895407813" x="1620.40" y="1412.31" type="priority"/>
    <node id="6953290707" x="332.66" y="1603.76" type="priority"/>
    <node id="6975695255" x="1231.47" y="1501.29" type="priority"/>
    <node id="6975695268" x="1170.14" y="1421.94" type="priority"/>
    <node id="6975705271" x="1273.25" y="1560.99" type="priority"/>
    <node id="6978423393" x="1885.84" y="1859.92" type="priority"/>
    <node id="6978678984" x="982.21" y="1452.16" type="priority"/>
    <node id="6978699093" x="1142.07" y="1481.65" type="priority"/>
    <node id="6978699101" x="950.22" y="1578.55" type="priority"/>
    <node id="6978699108" x="1108.63" y="1609.13" type="priority"/>
    <node id="6978940029" x="668.17" y="1296.43" type="priority"/>
    <node id="6978940035" x="611.64" y="1051.29" type="priority"/>
    <node id="6986512893" x="660.80" y="1568.30" type="priority"/>
    <node id="6986512897" x="783.36" y="1497.15" type="priority"/>
    <node id="6986512902" x="677.37" y="1487.37" type="priority"/>
    <node id="6986512905" x="664.87" y="1416.60" type="priority"/>
    <node id="6986512916" x="540.16" y="1096.18" type="priority"/>
    <node id="6988776444" x="776.77" y="766.87" type="priority"/>
    <node id="6988776447" x="836.76" y="654.18" type="priority"/>
    <node id="6988776449" x="839.52" y="705.52" type="priority"/>
    <node id="6988776450" x="848.76" y="739.01" type="priority"/>
    <node id="6988776451" x="865.00" y="789.34" type="priority"/>
    <node id="6988776452" x="878.82" y="827.89" type="priority"/>
    <node id="6991449614" x="671.96" y="734.36" type="priority"/>
    <node id="6991449617" x="726.72" y="815.41" type="priority"/>
    <node id="6995771896" x="2120.83" y="776.74" type="priority"/>
    <node id="7008070737" x="758.19" y="1114.38" type="priority"/>
    <node id="7008076808" x="726.47" y="1115.46" type="priority"/>
    <node id="7008076809" x="743.69" y="1140.29" type="priority"/>
    <node id="7008076814" x="687.43" y="1000.40" type="priority"/>
    <node id="7010206993" x="1220.27" y="1283.62" type="priority"/>
    <node id="7010206994" x="1242.63" y="1273.56" type="priority"/>
    <node id="7010206995" x="1190.23" y="1297.62" type="priority"/>
    <node id="7010640103" x="474.84" y="1466.94" type="priority"/>
    <node id="7010640108" x="664.62" y="1423.03" type="priority"/>
    <node id="7148607061" x="1295.44" y="1181.46" type="priority"/>
    <node id="7148607063" x="1134.04" y="1128.19" type="priority"/>
    <node id="7417213152" x="749.48" y="822.83" type="priority"/>
    <node id="7417213161" x="816.08" y="785.23" type="priority"/>
    <node id="7505566906" x="647.25" y="1665.56" type="priority"/>
    <node id="7505566916" x="807.08" y="1618.88" type="priority"/>
    <node id="7505566926" x="1604.98" y="1629.96" type="priority"/>
    <node id="7505566927" x="1696.14" y="1606.87" type="priority"/>
    <node id="7505669842" x="874.06" y="1168.48" type="priority"/>
    <node id="7505669847" x="798.24" y="969.85" type="priority"/>
    <node id="7505669848" x="890.59" y="1186.33" type="priority"/>
    <node id="7505669849" x="841.56" y="1330.17" type="priority"/>
    <node id="7505669851" x="884.78" y="1234.42" type="priority"/>
    <node id="7505669852" x="751.13" y="1234.40" type="priority"/>
    <node id="7505669867" x="961.75" y="1206.38" type="priority"/>
    <node id="7505669872" x="732.05" y="1176.14" type="priority"/>
    <node id="7505685492" x="1014.08" y="1317.32" type="priority"/>
    <node id="7505685494" x="1065.84" y="1322.04" type="priority"/>
    <node id="7505685497" x="1073.69" y="1227.47" type="priority"/>
    <node id="7505685499" x="1065.89" y="1199.29" type="priority"/>
    <node id="7505685501" x="934.94" y="1125.63" type="priority"/>
    <node id="7505685518" x="1167.27" y="1428.17" type="priority"/>
    <node id="7505685527" x="1413.62" y="1206.22" type="priority"/>
    <node id="7505685529" x="1398.84" y="1291.26" type="priority"/>
    <node id="7505685530" x="1438.20" y="1034.21" type="priority"/>
    <node id="7505685531" x="1569.48" y="1076.25" type="priority"/>
    <node id="7505685608" x="709.00" y="677.93" type="priority"/>
    <node id="7505685609" x="755.04" y="735.54" type="priority"/>
    <node id="7505685615" x="787.18" y="782.02" type="priority"/>
    <node id="7505685617" x="963.41" y="770.66" type="priority"/>
    <node id="7505774423" x="1228.21" y="832.80" type="priority"/>
    <node id="7505774427" x="1273.93" y="904.25" type="priority"/>
    <node id="7505774428" x="1282.71" y="840.53" type="priority"/>
    <node id="7505774429" x="1255.40" y="977.09" type="priority"/>
    <node id="7505774430" x="1311.55" y="906.50" type="priority"/>
    <node id="7505774440" x="1205.50" y="935.62" type="priority"/>
    <node id="7506481400" x="437.18" y="1664.98" type="priority"/>
    <node id="7506481426" x="1201.25" y="1331.65" type="priority"/>
    <node id="7506481434" x="1379.52" y="1594.98" type="priority"/>
    <node id="7506481435" x="1416.76" y="1583.45" type="priority"/>
    <node id="7506481465" x="1214.95" y="1442.85" type="priority"/>
    <node id="7506481471" x="1272.48" y="1427.86" type="priority"/>
    <node id="7506481477" x="1377.98" y="1499.85" type="priority"/>
    <node id="7506481479" x="1393.68" y="1692.43" type="priority"/>
    <node id="7506481480" x="1602.20" y="1618.69" type="priority"/>
    <node id="7506481481" x="1721.55" y="1584.22" type="priority"/>
    <node id="7506773497" x="650.29" y="1201.90" type="priority"/>
    <node id="7506773539" x="983.15" y="1050.52" type="priority"/>
    <node id="7506773540" x="1009.04" y="1216.69" type="priority"/>
    <node id="7506773542" x="858.49" y="1291.08" type="priority"/>
    <node id="7506773557" x="957.36" y="1324.11" type="priority"/>
    <node id="7506773564" x="981.86" y="1289.12" type="priority"/>
    <node id="7506773565" x="1188.39" y="1074.64" type="priority"/>
    <node id="7506773569" x="1261.92" y="1117.36" type="priority"/>
    <node id="7506773570" x="1290.52" y="1152.09" type="priority"/>
    <node id="7506773574" x="955.93" y="1521.84" type="priority"/>
    <node id="7506773577" x="1015.05" y="1518.08" type="priority"/>
    <node id="7506773582" x="1062.51" y="1468.79" type="priority"/>
    <node id="7506778488" x="1109.36" y="1438.10" type="priority"/>
    <node id="7506778493" x="1120.83" y="1403.11" type="right_before_left"/>
    <node id="7506778496" x="1219.99" y="1334.16" type="right_before_left"/>
    <node id="7506778503" x="1295.84" y="1330.43" type="priority"/>
    <node id="7506778508" x="1039.38" y="1593.52" type="priority"/>
    <node id="7506778509" x="1325.81" y="1145.51" type="priority"/>
    <node id="7506778514" x="1390.63" y="1202.10" type="priority"/>
    <node id="7506778515" x="1521.69" y="1239.12" type="priority"/>
    <node id="7506778519" x="1530.24" y="1108.11" type="priority"/>
    <node id="7506778548" x="1503.17" y="1232.47" type="priority"/>
    <node id="7506778553" x="1477.02" y="1397.00" type="priority"/>
    <node id="7506778569" x="1488.65" y="1385.73" type="priority"/>
    <node id="7509200693" x="1046.30" y="786.93" type="priority"/>
    <node id="7509200700" x="985.21" y="826.08" type="priority"/>
    <node id="7509200705" x="997.69" y="989.51" type="priority"/>
    <node id="7509408445" x="1211.57" y="1547.96" type="priority"/>
    <node id="7909099786" x="1812.59" y="1585.87" type="priority"/>
    <node id="7909099789" x="1918.06" y="1582.02" type="priority"/>
    <node id="7951559926" x="1817.50" y="1332.57" type="priority"/>
    <node id="8418571649" x="1547.10" y="1275.33" type="priority"/>
    <node id="8625984942" x="1932.57" y="1440.60" type="priority"/>
    <node id="8625984952" x="1923.67" y="1583.11" type="priority"/>
    <node id="8625984970" x="1581.29" y="1532.19" type="priority"/>
    <node id="8625984976" x="2111.11" y="1609.63" type="priority"/>
    <node id="9656654012" x="833.62" y="798.95" type="priority"/>
    <node id="9656654013" x="746.92" y="881.87" type="priority"/>
    <node id="9656654034" x="1860.95" y="1262.16" type="priority"/>
    <node id="9656654035" x="1911.60" y="1424.72" type="priority"/>
    <node id="9656654037" x="1949.94" y="1317.67" type="priority"/>
    <node id="9656664639" x="1798.27" y="1716.55" type="priority"/>
    <node id="9916993828" x="1805.52" y="1586.56" type="priority"/>
</nodes>
