<?xml version="1.0" encoding="UTF-8"?>

<!-- generated on 2026-03-18 00:13:17 by Eclipse SUMO netconvert Version 1.24.0
<netconvertConfiguration xmlns:xsi="http://www.w3.org/2001/XMLSchema-instance" xsi:noNamespaceSchemaLocation="http://sumo.dlr.de/xsd/netconvertConfiguration.xsd">

    <input>
        <sumo-net-file value="map.net.xml"/>
    </input>

    <output>
        <plain-output-prefix value="map_plain"/>
    </output>

    <processing>
        <geometry.min-radius.fix.railways value="false"/>
        <geometry.avoid-overlap value="false"/>
        <geometry.max-grade.fix value="false"/>
        <offset.disable-normalization value="true"/>
        <lefthand value="0"/>
    </processing>

    <junctions>
        <no-turnarounds value="true"/>
        <junctions.corner-detail value="5"/>
        <junctions.limit-turn-speed value="5.50"/>
        <rectangular-lane-cut value="0"/>
    </junctions>

    <pedestrian>
        <walkingareas value="0"/>
    </pedestrian>

</netconvertConfiguration>
-->

<connections version="1.20" xmlns:xsi="http://www.w3.org/2001/XMLSchema-instance" xsi:noNamespaceSchemaLocation="http://sumo.dlr.de/xsd/connections_file.xsd">
    <connection from="-1050839641" to="-802486170#1" fromLane="0" toLane="0"/>

    <connection from="-1050839644" to="1050839644" fromLane="0" toLane="0"/>

    <connection from="-1050839645" to="1050839645" fromLane="0" toLane="0"/>

    <connection from="-1050839653" to="-338648528#3" fromLane="0" toLane="0"/>
    <connection from="-1050839653" to="338648528#4" fromLane="0" toLane="0"/>
    <connection from="-1050839653" to="1050839653" fromLane="0" toLane="0"/>

    <connection from="-1050839654" to="-338648528#1" fromLane="0" toLane="0"/>
    <connection from="-1050839654" to="338648528#2" fromLane="0" toLane="0"/>
    <connection from="-1050839654" to="1050839654" fromLane="0" toLane="0"/>

    <connection from="-1050840917" to="1050840917" fromLane="0" toLane="0"/>

    <connection from="-1082081940" to="1082081940" fromLane="0" toLane="0"/>

    <connection from="-1107087158" to="-344129938#0" fromLane="0" toLane="0"/>
    <connection from="-1107087158" to="344129938#1" fromLane="0" toLane="0"/>
    <connection from="-1107087158" to="1107087158" fromLane="0" toLane="0"/>

    <connection from="-1204149318" to="344074132#3" fromLane="0" toLane="0"/>
    <connection from="-1204149318" to="-344074132#2" fromLane="0" toLane="0"/>
    <connection from="-1204149318" to="1204149318" fromLane="0" toLane="0"/>

    <connection from="-1207396415" to="-1458334191#3" fromLane="0" toLane="0"/>
    <connection from="-1207396415" to="1458334191#4" fromLane="0" toLane="0"/>
    <connection from="-1207396415" to="1207396415" fromLane="0" toLane="0"/>

    <connection from="-1209728804" to="802516067#1" fromLane="0" toLane="0"/>
    <connection from="-1209728804" to="-802516067#0" fromLane="0" toLane="0"/>
    <connection from="-1209728804" to="1209728804" fromLane="0" toLane="0"/>

    <connection from="-1209729127" to="-1458156153#0" fromLane="0" toLane="0"/>
    <connection from="-1209729127" to="1458156153#1" fromLane="0" toLane="0"/>
    <connection from="-1209729127" to="1209729127" fromLane="0" toLane="0"/>

    <connection from="-1209729260" to="1209729260" fromLane="0" toLane="0"/>

    <connection from="-1209729401" to="-1459998823#1" fromLane="0" toLane="0"/>
    <connection from="-1209729401" to="1459998823#2" fromLane="0" toLane="0"/>
    <connection from="-1209729401" to="1209729401" fromLane="0" toLane="0"/>

    <connection from="-1209729506" to="1459998823#4" fromLane="0" toLane="0"/>
    <connection from="-1209729506" to="-1459998823#3" fromLane="0" toLane="0"/>
    <connection from="-1209729506" to="1209729506" fromLane="0" toLane="0"/>

    <connection from="-1209729847" to="802486169#1" fromLane="0" toLane="0"/>
    <connection from="-1209729847" to="-802486169#0" fromLane="0" toLane="0"/>
    <connection from="-1209729847" to="1209729847" fromLane="0" toLane="0"/>

    <connection from="-1209730481" to="1209730481" fromLane="0" toLane="0"/>

    <connection from="-1209731273" to="1459998823#3" fromLane="0" toLane="0"/>
    <connection from="-1209731273" to="-1459998823#2" fromLane="0" toLane="0"/>
    <connection from="-1209731273" to="1209731273" fromLane="0" toLane="0"/>

    <connection from="-1209731431" to="1459998823#5" fromLane="0" toLane="0"/>
    <connection from="-1209731431" to="-1459998823#4" fromLane="0" toLane="0"/>
    <connection from="-1209731431" to="1209731431" fromLane="0" toLane="0"/>

    <connection from="-1209732955" to="-344126029#5" fromLane="0" toLane="0"/>
    <connection from="-1209732955" to="344126032" fromLane="0" toLane="0"/>
    <connection from="-1209732955" to="344126029#6" fromLane="0" toLane="0"/>
    <connection from="-1209732955" to="1209732955" fromLane="0" toLane="0"/>

    <connection from="-1209944259" to="746560519#2" fromLane="0" toLane="0"/>
    <connection from="-1209944259" to="-746560519#1" fromLane="0" toLane="0"/>
    <connection from="-1209944259" to="1209944259" fromLane="0" toLane="0"/>

    <connection from="-1209944601" to="1209944601" fromLane="0" toLane="0"/>

    <connection from="-1209952765" to="1209952765" fromLane="0" toLane="0"/>

    <connection from="-122488406#0" to="1458334191#0" fromLane="0" toLane="0"/>
    <connection from="-122488406#0" to="1459998823#0" fromLane="0" toLane="0"/>
    <connection from="-122488406#0" to="122488406#0" fromLane="0" toLane="0"/>

    <connection from="-122488406#1" to="-122488406#0" fromLane="0" toLane="0"/>
    <connection from="-122488406#1" to="749406407#0" fromLane="0" toLane="0"/>
    <connection from="-122488406#1" to="122488406#1" fromLane="0" toLane="0"/>

    <connection from="-122488406#2" to="1304994252" fromLane="0" toLane="0"/>
    <connection from="-122488406#2" to="-122488406#1" fromLane="0" toLane="0"/>
    <connection from="-122488406#2" to="122488406#2" fromLane="0" toLane="0"/>

    <connection from="-122488406#3" to="-122488406#2" fromLane="0" toLane="0"/>
    <connection from="-122488406#3" to="745591121#0" fromLane="0" toLane="0"/>
    <connection from="-122488406#3" to="122488406#3" fromLane="0" toLane="0"/>

    <connection from="-122488406#4" to="-122488406#3" fromLane="0" toLane="0"/>
    <connection from="-122488406#4" to="746560520#0" fromLane="0" toLane="0"/>
    <connection from="-122488406#4" to="122488406#4" fromLane="0" toLane="0"/>

    <connection from="-1304994252" to="-122488406#1" fromLane="0" toLane="0"/>
    <connection from="-1304994252" to="122488406#2" fromLane="0" toLane="0"/>
    <connection from="-1304994252" to="1304994252" fromLane="0" toLane="0"/>

    <connection from="-1377702598#0" to="1377702598#0" fromLane="0" toLane="0"/>

    <connection from="-1377702598#1" to="-345387882" fromLane="0" toLane="0"/>
    <connection from="-1377702598#1" to="-1377702598#0" fromLane="0" toLane="0"/>
    <connection from="-1377702598#1" to="1377702598#1" fromLane="0" toLane="0"/>

    <connection from="-1377702599" to="344126024#3" fromLane="0" toLane="0"/>
    <connection from="-1377702599" to="-344126024#2" fromLane="0" toLane="0"/>
    <connection from="-1377702599" to="1377702599" fromLane="0" toLane="0"/>

    <connection from="-1458156148" to="265229350#4" fromLane="0" toLane="0"/>
    <connection from="-1458156148" to="-265229350#3" fromLane="0" toLane="0"/>
    <connection from="-1458156148" to="1458156148" fromLane="0" toLane="0"/>

    <connection from="-1458156149#0" to="1458156149#0" fromLane="0" toLane="0"/>

    <connection from="-1458156149#1" to="802516066" fromLane="0" toLane="0"/>
    <connection from="-1458156149#1" to="-1458156149#0" fromLane="0" toLane="0"/>
    <connection from="-1458156149#1" to="1458156149#1" fromLane="0" toLane="0"/>

    <connection from="-1458156153#0" to="-1458156154" fromLane="0" toLane="0"/>

    <connection from="-1458156153#1" to="1209729127" fromLane="0" toLane="0"/>
    <connection from="-1458156153#1" to="-1458156153#0" fromLane="0" toLane="0"/>
    <connection from="-1458156153#1" to="1458156153#1" fromLane="0" toLane="0"/>

    <connection from="-1458156153#2" to="-1458156153#1" fromLane="0" toLane="0"/>
    <connection from="-1458156153#2" to="743160793#0" fromLane="0" toLane="0"/>
    <connection from="-1458156153#2" to="1458156153#2" fromLane="0" toLane="0"/>

    <connection from="-1458156154" to="-265229350#9" fromLane="0" toLane="0"/>

    <connection from="-1458156155" to="-344074132#3" fromLane="0" toLane="0"/>
    <connection from="-1458156155" to="345390447#0" fromLane="0" toLane="0"/>
    <connection from="-1458156155" to="1458156155" fromLane="0" toLane="0"/>

    <connection from="-1458228607" to="1458228607" fromLane="0" toLane="0"/>

    <connection from="-1458236717#0" to="265229350#2" fromLane="0" toLane="0"/>
    <connection from="-1458236717#0" to="-265229350#1" fromLane="0" toLane="0"/>
    <connection from="-1458236717#0" to="1458236717#0" fromLane="0" toLane="0"/>

    <connection from="-1458236717#1" to="-802516068#0" fromLane="0" toLane="0"/>
    <connection from="-1458236717#1" to="-1458236717#0" fromLane="0" toLane="0"/>
    <connection from="-1458236717#1" to="802516068#1" fromLane="0" toLane="0"/>
    <connection from="-1458236717#1" to="1458236717#1" fromLane="0" toLane="0"/>

    <connection from="-1458334191#0" to="1459998823#0" fromLane="0" toLane="0"/>
    <connection from="-1458334191#0" to="122488406#0" fromLane="0" toLane="0"/>
    <connection from="-1458334191#0" to="1458334191#0" fromLane="0" toLane="0"/>

    <connection from="-1458334191#1" to="344126024#0" fromLane="0" toLane="0"/>
    <connection from="-1458334191#1" to="-1458334191#0" fromLane="0" toLane="0"/>
    <connection from="-1458334191#1" to="1458334191#1" fromLane="0" toLane="0"/>

    <connection from="-1458334191#2" to="-1458334191#1" fromLane="0" toLane="0"/>
    <connection from="-1458334191#2" to="745514053" fromLane="0" toLane="0"/>
    <connection from="-1458334191#2" to="1458334191#2" fromLane="0" toLane="0"/>

    <connection from="-1458334191#3" to="344215905#0" fromLane="0" toLane="0"/>
    <connection from="-1458334191#3" to="-1458334191#2" fromLane="0" toLane="0"/>
    <connection from="-1458334191#3" to="1458334191#3" fromLane="0" toLane="0"/>

    <connection from="-1458334191#4" to="1207396415" fromLane="0" toLane="0"/>
    <connection from="-1458334191#4" to="-1458334191#3" fromLane="0" toLane="0"/>
    <connection from="-1458334191#4" to="1458334191#4" fromLane="0" toLane="0"/>

    <connection from="-1458334192" to="-1458156153#2" fromLane="0" toLane="0"/>
    <connection from="-1458334192" to="-1459998823#7" fromLane="0" toLane="0"/>
    <connection from="-1458334192" to="-344126032" fromLane="0" toLane="0"/>
    <connection from="-1458334192" to="1458334192" fromLane="0" toLane="0"/>

    <connection from="-1458438161" to="-265229350#7" fromLane="0" toLane="0"/>
    <connection from="-1458438161" to="265229350#8" fromLane="0" toLane="0"/>
    <connection from="-1458438161" to="1458438161" fromLane="0" toLane="0"/>

    <connection from="-1458438168" to="-1050839641" fromLane="0" toLane="0"/>

    <connection from="-1459114486" to="743160793#4" fromLane="0" toLane="0"/>
    <connection from="-1459114486" to="-743160793#3" fromLane="0" toLane="0"/>
    <connection from="-1459114486" to="1459114486" fromLane="0" toLane="0"/>

    <connection from="-1459998823#0" to="122488406#0" fromLane="0" toLane="0"/>
    <connection from="-1459998823#0" to="1458334191#0" fromLane="0" toLane="0"/>
    <connection from="-1459998823#0" to="1459998823#0" fromLane="0" toLane="0"/>

    <connection from="-1459998823#1" to="-802399772" fromLane="0" toLane="0"/>
    <connection from="-1459998823#1" to="-1459998823#0" fromLane="0" toLane="0"/>
    <connection from="-1459998823#1" to="1459998823#1" fromLane="0" toLane="0"/>

    <connection from="-1459998823#2" to="1209729401" fromLane="0" toLane="0"/>
    <connection from="-1459998823#2" to="-1459998823#1" fromLane="0" toLane="0"/>
    <connection from="-1459998823#2" to="1459998823#2" fromLane="0" toLane="0"/>

    <connection from="-1459998823#3" to="-1459998823#2" fromLane="0" toLane="0"/>
    <connection from="-1459998823#3" to="1209731273" fromLane="0" toLane="0"/>

    <connection from="-1459998823#4" to="-1459998823#3" fromLane="0" toLane="0"/>
    <connection from="-1459998823#4" to="1209729506" fromLane="0" toLane="0"/>
    <connection from="-1459998823#4" to="1459998823#4" fromLane="0" toLane="0"/>

    <connection from="-1459998823#5" to="-1459998823#4" fromLane="0" toLane="0"/>
    <connection from="-1459998823#5" to="1209731431" fromLane="0" toLane="0"/>
    <connection from="-1459998823#5" to="1459998823#5" fromLane="0" toLane="0"/>

    <connection from="-1459998823#6" to="-1459998823#5" fromLane="0" toLane="0"/>
    <connection from="-1459998823#6" to="-344126029#7" fromLane="0" toLane="0"/>
    <connection from="-1459998823#6" to="1459998823#6" fromLane="0" toLane="0"/>

    <connection from="-1459998823#7" to="-802516059#1" fromLane="0" toLane="0"/>
    <connection from="-1459998823#7" to="-1459998823#6" fromLane="0" toLane="0"/>
    <connection from="-1459998823#7" to="1459998823#7" fromLane="0" toLane="0"/>

    <connection from="-265229350#0" to="265229350#0" fromLane="0" toLane="0"/>

    <connection from="-265229350#1" to="-265229350#0" fromLane="0" toLane="0"/>
    <connection from="-265229350#1" to="-802516068#1" fromLane="0" toLane="0"/>
    <connection from="-265229350#1" to="265229350#1" fromLane="0" toLane="0"/>

    <connection from="-265229350#2" to="-265229350#1" fromLane="0" toLane="0"/>
    <connection from="-265229350#2" to="1458236717#0" fromLane="0" toLane="0"/>
    <connection from="-265229350#2" to="265229350#2" fromLane="0" toLane="0"/>

    <connection from="-265229350#3" to="-265229350#2" fromLane="0" toLane="0"/>
    <connection from="-265229350#3" to="749334674" fromLane="0" toLane="0"/>
    <connection from="-265229350#3" to="265229350#3" fromLane="0" toLane="0"/>

    <connection from="-265229350#4" to="-265229350#3" fromLane="0" toLane="0"/>
    <connection from="-265229350#4" to="1458156148" fromLane="0" toLane="0"/>
    <connection from="-265229350#4" to="265229350#4" fromLane="0" toLane="0"/>

    <connection from="-265229350#5" to="-265229350#4" fromLane="0" toLane="0"/>
    <connection from="-265229350#5" to="-1458156149#1" fromLane="0" toLane="0"/>
    <connection from="-265229350#5" to="265229350#5" fromLane="0" toLane="0"/>

    <connection from="-265229350#6" to="745197852#0" fromLane="0" toLane="0"/>
    <connection from="-265229350#6" to="-265229350#5" fromLane="0" toLane="0"/>
    <connection from="-265229350#6" to="265229350#6" fromLane="0" toLane="0"/>

    <connection from="-265229350#7" to="802516067#0" fromLane="0" toLane="0"/>
    <connection from="-265229350#7" to="-265229350#6" fromLane="0" toLane="0"/>
    <connection from="-265229350#7" to="265229350#7" fromLane="0" toLane="0"/>

    <connection from="-265229350#8" to="1458438161" fromLane="0" toLane="0"/>
    <connection from="-265229350#8" to="-265229350#7" fromLane="0" toLane="0"/>
    <connection from="-265229350#8" to="265229350#8" fromLane="0" toLane="0"/>

    <connection from="-265229350#9" to="749653881#0" fromLane="0" toLane="0"/>
    <connection from="-265229350#9" to="-265229350#8" fromLane="0" toLane="0"/>
    <connection from="-265229350#9" to="265229350#9" fromLane="0" toLane="0"/>

    <connection from="-338648528#0" to="338648528#0" fromLane="0" toLane="0"/>

    <connection from="-338648528#1" to="-338648528#0" fromLane="0" toLane="0"/>
    <connection from="-338648528#1" to="930291019#0" fromLane="0" toLane="0"/>
    <connection from="-338648528#1" to="338648528#1" fromLane="0" toLane="0"/>

    <connection from="-338648528#10" to="-1209730481" fromLane="0" toLane="0"/>
    <connection from="-338648528#10" to="-338648528#9" fromLane="0" toLane="0"/>
    <connection from="-338648528#10" to="-1209729260" fromLane="0" toLane="0"/>
    <connection from="-338648528#10" to="338648528#10" fromLane="0" toLane="0"/>

    <connection from="-338648528#11" to="-338648528#10" fromLane="0" toLane="0"/>
    <connection from="-338648528#11" to="802399783" fromLane="0" toLane="0"/>
    <connection from="-338648528#11" to="338648528#11" fromLane="0" toLane="0"/>

    <connection from="-338648528#12" to="-802516069" fromLane="0" toLane="0"/>
    <connection from="-338648528#12" to="-338648528#11" fromLane="0" toLane="0"/>
    <connection from="-338648528#12" to="338648528#12" fromLane="0" toLane="0"/>

    <connection from="-338648528#2" to="1050839654" fromLane="0" toLane="0"/>
    <connection from="-338648528#2" to="-338648528#1" fromLane="0" toLane="0"/>
    <connection from="-338648528#2" to="338648528#2" fromLane="0" toLane="0"/>

    <connection from="-338648528#3" to="-338648528#2" fromLane="0" toLane="0"/>
    <connection from="-338648528#3" to="847580334#0" fromLane="0" toLane="0"/>
    <connection from="-338648528#3" to="338648528#3" fromLane="0" toLane="0"/>

    <connection from="-338648528#4" to="1050839653" fromLane="0" toLane="0"/>
    <connection from="-338648528#4" to="-338648528#3" fromLane="0" toLane="0"/>
    <connection from="-338648528#4" to="338648528#4" fromLane="0" toLane="0"/>

    <connection from="-338648528#5" to="-345391008#2" fromLane="0" toLane="0"/>
    <connection from="-338648528#5" to="-338648528#4" fromLane="0" toLane="0"/>
    <connection from="-338648528#5" to="736486718" fromLane="0" toLane="0"/>
    <connection from="-338648528#5" to="338648528#5" fromLane="0" toLane="0"/>

    <connection from="-338648528#6" to="-338648528#5" fromLane="0" toLane="0"/>
    <connection from="-338648528#6" to="345390442#0" fromLane="0" toLane="0"/>
    <connection from="-338648528#6" to="338648528#6" fromLane="0" toLane="0"/>

    <connection from="-338648528#7" to="345390443#0" fromLane="0" toLane="0"/>
    <connection from="-338648528#7" to="-338648528#6" fromLane="0" toLane="0"/>
    <connection from="-338648528#7" to="906594466" fromLane="0" toLane="0"/>
    <connection from="-338648528#7" to="338648528#7" fromLane="0" toLane="0"/>

    <connection from="-338648528#8" to="802516070" fromLane="0" toLane="0"/>
    <connection from="-338648528#8" to="-338648528#7" fromLane="0" toLane="0"/>
    <connection from="-338648528#8" to="338648528#8" fromLane="0" toLane="0"/>

    <connection from="-338648528#9" to="-338648528#8" fromLane="0" toLane="0"/>
    <connection from="-338648528#9" to="802516073" fromLane="0" toLane="0"/>
    <connection from="-338648528#9" to="338648528#9" fromLane="0" toLane="0"/>

    <connection from="-344074132#0" to="344074132#0" fromLane="0" toLane="0"/>

    <connection from="-344074132#1" to="-344074132#0" fromLane="0" toLane="0"/>
    <connection from="-344074132#1" to="-1050840917" fromLane="0" toLane="0"/>
    <connection from="-344074132#1" to="344074132#1" fromLane="0" toLane="0"/>

    <connection from="-344074132#2" to="345391009#0" fromLane="0" toLane="0"/>
    <connection from="-344074132#2" to="-344074132#1" fromLane="0" toLane="0"/>
    <connection from="-344074132#2" to="344074132#2" fromLane="0" toLane="0"/>

    <connection from="-344074132#3" to="-344074132#2" fromLane="0" toLane="0"/>
    <connection from="-344074132#3" to="1204149318" fromLane="0" toLane="0"/>
    <connection from="-344074132#3" to="344074132#3" fromLane="0" toLane="0"/>

    <connection from="-344126024#0" to="-1458334191#0" fromLane="0" toLane="0"/>
    <connection from="-344126024#0" to="1458334191#1" fromLane="0" toLane="0"/>
    <connection from="-344126024#0" to="344126024#0" fromLane="0" toLane="0"/>

    <connection from="-344126024#1" to="802765343" fromLane="0" toLane="0"/>
    <connection from="-344126024#1" to="-344126024#0" fromLane="0" toLane="0"/>
    <connection from="-344126024#1" to="344126024#1" fromLane="0" toLane="0"/>

    <connection from="-344126024#2" to="-344130935" fromLane="0" toLane="0"/>
    <connection from="-344126024#2" to="-344126024#1" fromLane="0" toLane="0"/>
    <connection from="-344126024#2" to="344126024#2" fromLane="0" toLane="0"/>

    <connection from="-344126024#3" to="-344126024#2" fromLane="0" toLane="0"/>
    <connection from="-344126024#3" to="1377702599" fromLane="0" toLane="0"/>
    <connection from="-344126024#3" to="344126024#3" fromLane="0" toLane="0"/>

    <connection from="-344126024#4" to="-345387876" fromLane="0" toLane="0"/>
    <connection from="-344126024#4" to="-344126024#3" fromLane="0" toLane="0"/>
    <connection from="-344126024#4" to="344126024#4" fromLane="0" toLane="0"/>

    <connection from="-344126026" to="-344126029#2" fromLane="0" toLane="0"/>
    <connection from="-344126026" to="344126029#3" fromLane="0" toLane="0"/>
    <connection from="-344126026" to="344126026" fromLane="0" toLane="0"/>

    <connection from="-344126028#0" to="-344126029#3" fromLane="0" toLane="0"/>
    <connection from="-344126028#0" to="344126029#4" fromLane="0" toLane="0"/>
    <connection from="-344126028#0" to="344126028#0" fromLane="0" toLane="0"/>

    <connection from="-344126028#1" to="-802412032#1" fromLane="0" toLane="0"/>
    <connection from="-344126028#1" to="-344126028#0" fromLane="0" toLane="0"/>
    <connection from="-344126028#1" to="344126028#1" fromLane="0" toLane="0"/>

    <connection from="-344126029#0" to="345387882" fromLane="0" toLane="0"/>

    <connection from="-344126029#1" to="-344126029#0" fromLane="0" toLane="0"/>
    <connection from="-344126029#1" to="345387884" fromLane="0" toLane="0"/>
    <connection from="-344126029#1" to="344126029#1" fromLane="0" toLane="0"/>

    <connection from="-344126029#2" to="344129938#0" fromLane="0" toLane="0"/>
    <connection from="-344126029#2" to="-344126029#1" fromLane="0" toLane="0"/>
    <connection from="-344126029#2" to="344126029#2" fromLane="0" toLane="0"/>

    <connection from="-344126029#3" to="344126026" fromLane="0" toLane="0"/>
    <connection from="-344126029#3" to="-344126029#2" fromLane="0" toLane="0"/>
    <connection from="-344126029#3" to="344126029#3" fromLane="0" toLane="0"/>

    <connection from="-344126029#4" to="344126028#0" fromLane="0" toLane="0"/>
    <connection from="-344126029#4" to="-344126029#3" fromLane="0" toLane="0"/>
    <connection from="-344126029#4" to="344126029#4" fromLane="0" toLane="0"/>

    <connection from="-344126029#5" to="-344126029#4" fromLane="0" toLane="0"/>
    <connection from="-344126029#5" to="345390441" fromLane="0" toLane="0"/>
    <connection from="-344126029#5" to="344126029#5" fromLane="0" toLane="0"/>

    <connection from="-344126029#6" to="1209732955" fromLane="0" toLane="0"/>
    <connection from="-344126029#6" to="-344126029#5" fromLane="0" toLane="0"/>
    <connection from="-344126029#6" to="344126032" fromLane="0" toLane="0"/>
    <connection from="-344126029#6" to="344126029#6" fromLane="0" toLane="0"/>

    <connection from="-344126029#7" to="-802765343" fromLane="0" toLane="0"/>
    <connection from="-344126029#7" to="-344126029#6" fromLane="0" toLane="0"/>
    <connection from="-344126029#7" to="344126029#7" fromLane="0" toLane="0"/>

    <connection from="-344126032" to="344126029#6" fromLane="0" toLane="0"/>
    <connection from="-344126032" to="1209732955" fromLane="0" toLane="0"/>
    <connection from="-344126032" to="-344126029#5" fromLane="0" toLane="0"/>
    <connection from="-344126032" to="344126032" fromLane="0" toLane="0"/>

    <connection from="-344129938#0" to="-344126029#1" fromLane="0" toLane="0"/>
    <connection from="-344129938#0" to="344126029#2" fromLane="0" toLane="0"/>
    <connection from="-344129938#0" to="344129938#0" fromLane="0" toLane="0"/>

    <connection from="-344129938#1" to="1107087158" fromLane="0" toLane="0"/>
    <connection from="-344129938#1" to="-344129938#0" fromLane="0" toLane="0"/>
    <connection from="-344129938#1" to="344129938#1" fromLane="0" toLane="0"/>

    <connection from="-344129938#2" to="-344129938#1" fromLane="0" toLane="0"/>
    <connection from="-344129938#2" to="802412032#0" fromLane="0" toLane="0"/>
    <connection from="-344129938#2" to="344129938#2" fromLane="0" toLane="0"/>

    <connection from="-344129938#3" to="-344129938#2" fromLane="0" toLane="0"/>
    <connection from="-344129938#3" to="802412031" fromLane="0" toLane="0"/>
    <connection from="-344129938#3" to="344129938#3" fromLane="0" toLane="0"/>

    <connection from="-344130935" to="-344129938#3" fromLane="0" toLane="0"/>

    <connection from="-344215905#0" to="-1458334191#2" fromLane="0" toLane="0"/>
    <connection from="-344215905#0" to="1458334191#3" fromLane="0" toLane="0"/>
    <connection from="-344215905#0" to="344215905#0" fromLane="0" toLane="0"/>

    <connection from="-344215905#1" to="-344215905#0" fromLane="0" toLane="0"/>
    <connection from="-344215905#1" to="747183754" fromLane="0" toLane="0"/>
    <connection from="-344215905#1" to="344215905#1" fromLane="0" toLane="0"/>

    <connection from="-344215905#2" to="-344215905#1" fromLane="0" toLane="0"/>
    <connection from="-344215905#2" to="793227705" fromLane="0" toLane="0"/>
    <connection from="-344215905#2" to="344215905#2" fromLane="0" toLane="0"/>

    <connection from="-344215905#3" to="-1050839645" fromLane="0" toLane="0"/>
    <connection from="-344215905#3" to="-344215905#2" fromLane="0" toLane="0"/>
    <connection from="-344215905#3" to="344215905#3" fromLane="0" toLane="0"/>

    <connection from="-344215905#4" to="-344215905#3" fromLane="0" toLane="0"/>
    <connection from="-344215905#4" to="746834592#0" fromLane="0" toLane="0"/>
    <connection from="-344215905#4" to="344215905#4" fromLane="0" toLane="0"/>

    <connection from="-345387876" to="345387880" fromLane="0" toLane="0"/>

    <connection from="-345387880" to="345387876" fromLane="0" toLane="0"/>

    <connection from="-345387882" to="344126029#0" fromLane="0" toLane="0"/>

    <connection from="-345387884" to="344126029#1" fromLane="0" toLane="0"/>
    <connection from="-345387884" to="-344126029#0" fromLane="0" toLane="0"/>
    <connection from="-345387884" to="345387884" fromLane="0" toLane="0"/>

    <connection from="-345390441" to="344126029#5" fromLane="0" toLane="0"/>
    <connection from="-345390441" to="-344126029#4" fromLane="0" toLane="0"/>
    <connection from="-345390441" to="345390441" fromLane="0" toLane="0"/>

    <connection from="-345390442#0" to="338648528#6" fromLane="0" toLane="0"/>
    <connection from="-345390442#0" to="-338648528#5" fromLane="0" toLane="0"/>
    <connection from="-345390442#0" to="345390442#0" fromLane="0" toLane="0"/>

    <connection from="-345390442#1" to="-802516074#1" fromLane="0" toLane="0"/>
    <connection from="-345390442#1" to="-345390442#0" fromLane="0" toLane="0"/>
    <connection from="-345390442#1" to="345390442#1" fromLane="0" toLane="0"/>

    <connection from="-345390442#2" to="-345390442#1" fromLane="0" toLane="0"/>
    <connection from="-345390442#2" to="-930291020#1" fromLane="0" toLane="0"/>
    <connection from="-345390442#2" to="345390442#2" fromLane="0" toLane="0"/>

    <connection from="-345390442#3" to="-345390442#2" fromLane="0" toLane="0"/>
    <connection from="-345390442#3" to="802486171" fromLane="0" toLane="0"/>
    <connection from="-345390442#3" to="345390442#3" fromLane="0" toLane="0"/>

    <connection from="-345390442#4" to="-345390442#3" fromLane="0" toLane="0"/>
    <connection from="-345390442#4" to="802386809" fromLane="0" toLane="0"/>
    <connection from="-345390442#4" to="345390442#4" fromLane="0" toLane="0"/>

    <connection from="-345390443#0" to="-338648528#6" fromLane="0" toLane="0"/>
    <connection from="-345390443#0" to="906594466" fromLane="0" toLane="0"/>
    <connection from="-345390443#0" to="338648528#7" fromLane="0" toLane="0"/>
    <connection from="-345390443#0" to="345390443#0" fromLane="0" toLane="0"/>

    <connection from="-345390443#1" to="-345390444" fromLane="0" toLane="0"/>
    <connection from="-345390443#1" to="-345390443#0" fromLane="0" toLane="0"/>
    <connection from="-345390443#1" to="345390443#1" fromLane="0" toLane="0"/>

    <connection from="-345390443#2" to="-345390443#1" fromLane="0" toLane="0"/>
    <connection from="-345390443#2" to="-802399784" fromLane="0" toLane="0"/>
    <connection from="-345390443#2" to="345390443#2" fromLane="0" toLane="0"/>

    <connection from="-345390444" to="-345391008#1" fromLane="0" toLane="0"/>
    <connection from="-345390444" to="345391008#2" fromLane="0" toLane="0"/>
    <connection from="-345390444" to="345390444" fromLane="0" toLane="0"/>

    <connection from="-345390445#0" to="345391008#1" fromLane="0" toLane="0"/>
    <connection from="-345390445#0" to="-345391008#0" fromLane="0" toLane="0"/>
    <connection from="-345390445#0" to="345390445#0" fromLane="0" toLane="0"/>

    <connection from="-345390445#1" to="-345390445#0" fromLane="0" toLane="0"/>
    <connection from="-345390445#1" to="345390446" fromLane="0" toLane="0"/>
    <connection from="-345390445#1" to="345390445#1" fromLane="0" toLane="0"/>

    <connection from="-345390446" to="345390445#1" fromLane="0" toLane="0"/>
    <connection from="-345390446" to="-345390445#0" fromLane="0" toLane="0"/>
    <connection from="-345390446" to="345390446" fromLane="0" toLane="0"/>

    <connection from="-345390447#0" to="1458156155" fromLane="0" toLane="0"/>
    <connection from="-345390447#0" to="-344074132#3" fromLane="0" toLane="0"/>
    <connection from="-345390447#0" to="345390447#0" fromLane="0" toLane="0"/>

    <connection from="-345390447#1" to="-345390447#0" fromLane="0" toLane="0"/>
    <connection from="-345390447#1" to="747751315" fromLane="0" toLane="0"/>
    <connection from="-345390447#1" to="345390447#1" fromLane="0" toLane="0"/>

    <connection from="-345391008#0" to="-1458156155" fromLane="0" toLane="0"/>
