<routes>
    <vType id="car" accel="2.6" decel="4.5" sigma="0.5" length="5" maxSpeed="50"/>
    <trip id="veh0" type="car" depart="0.0" from="338648528#6" to="345390447#0"/>
    <trip id="veh1" type="car" depart="0.5" from="345390441" to="-802516068#0"/>
    <trip id="veh2" type="car" depart="1.0" from="-802399801" to="-344126024#3"/>
    <trip id="veh3" type="car" depart="1.5" from="1209944601" to="-1050839644"/>
    <trip id="veh4" type="car" depart="2.0" from="-345387880" to="345390442#0"/>
    <trip id="veh5" type="car" depart="2.5" from="-802486168" to="-802399801"/>
    <trip id="veh6" type="car" depart="3.0" from="1377702598#0" to="-746560519#0"/>
    <trip id="veh7" type="car" depart="3.5" from="265229350#3" to="802486170#0"/>
    <trip id="veh8" type="car" depart="4.0" from="802516074#1" to="1458339974"/>
    <trip id="veh9" type="car" depart="4.5" from="-802399798#2" to="-1458334191#2"/>
    <trip id="veh10" type="car" depart="5.0" from="1458156154" to="746834592#1"/>
    <trip id="veh11" type="car" depart="5.5" from="-1209729401" to="345387880"/>
    <trip id="veh12" type="car" depart="6.0" from="-802412032#0" to="-746834592#0"/>
    <trip id="veh13" type="car" depart="6.5" from="344215905#2" to="344126029#2"/>
    <trip id="veh14" type="car" depart="7.0" from="-338648528#12" to="1459998823#4"/>
    <trip id="veh15" type="car" depart="7.5" from="802516073" to="-802399779#1"/>
    <trip id="veh16" type="car" depart="8.0" from="-265229350#5" to="-745514053"/>
    <trip id="veh17" type="car" depart="8.5" from="345387876" to="345390443#2"/>
    <trip id="veh18" type="car" depart="9.0" from="802412033" to="-338648528#4"/>
    <trip id="veh19" type="car" depart="9.5" from="1209944259" to="344129938#2"/>
    <trip id="veh20" type="car" depart="10.0" from="1207396415" to="1458156149#0"/>
    <trip id="veh21" type="car" depart="10.5" from="1458228607" to="-802399778"/>
    <trip id="veh22" type="car" depart="11.0" from="802516074#0" to="-122488406#2"/>
    <trip id="veh23" type="car" depart="11.5" from="802399777#3" to="-1209732955"/>
    <trip id="veh24" type="car" depart="12.0" from="802399776" to="-344130935"/>
    <trip id="veh25" type="car" depart="12.5" from="344130935" to="802399799"/>
    <trip id="veh26" type="car" depart="13.0" from="-802486169#0" to="-345391012"/>
    <trip id="veh27" type="car" depart="13.5" from="-736486718" to="1459998823#6"/>
    <trip id="veh28" type="car" depart="14.0" from="-345387882" to="1209731431"/>
    <trip id="veh29" type="car" depart="14.5" from="-345391008#0" to="1209730481"/>
    <trip id="veh30" type="car" depart="15.0" from="1459998823#5" to="-746560520#1"/>
    <trip id="veh31" type="car" depart="15.5" from="-345390443#1" to="-743160793#4"/>
    <trip id="veh32" type="car" depart="16.0" from="265229350#1" to="802516062"/>
    <trip id="veh33" type="car" depart="16.5" from="1209729401" to="1377702599"/>
    <trip id="veh34" type="car" depart="17.0" from="344215905#3" to="345387876"/>
    <trip id="veh35" type="car" depart="17.5" from="-344126032" to="-802516070"/>
    <trip id="veh36" type="car" depart="18.0" from="-1050839644" to="930291021"/>
    <trip id="veh37" type="car" depart="18.5" from="802516068#1" to="802399776"/>
    <trip id="veh38" type="car" depart="19.0" from="344215905#4" to="-344130935"/>
    <trip id="veh39" type="car" depart="19.5" from="-338648528#9" to="-345390442#0"/>
    <trip id="veh40" type="car" depart="20.0" from="-802412031" to="345387882"/>
    <trip id="veh41" type="car" depart="20.5" from="1458224698" to="906594466"/>
    <trip id="veh42" type="car" depart="21.0" from="338648528#10" to="746560519#3"/>
    <trip id="veh43" type="car" depart="21.5" from="344074132#2" to="736486718"/>
    <trip id="veh44" type="car" depart="22.0" from="122488406#1" to="-802486170#1"/>
    <trip id="veh45" type="car" depart="22.5" from="344129938#0" to="-122488406#1"/>
    <trip id="veh46" type="car" depart="23.0" from="802516069" to="746560519#1"/>
    <trip id="veh47" type="car" depart="23.5" from="-1050839653" to="802399779#1"/>
    <trip id="veh48" type="car" depart="24.0" from="-802412033" to="-345390443#1"/>
    <trip id="veh49" type="car" depart="24.5" from="265229350#5" to="-344129938#3"/>
    <trip id="veh50" type="car" depart="25.0" from="-345391008#2" to="746560520#2"/>
    <trip id="veh51" type="car" depart="25.5" from="-802486161" to="-1458334191#1"/>
    <trip id="veh52" type="car" depart="26.0" from="-802516074#0" to="-345391008#0"/>
    <trip id="veh53" type="car" depart="26.5" from="802516059#0" to="-746560520#0"/>
    <trip id="veh54" type="car" depart="27.0" from="-1209732955" to="-338648528#6"/>
    <trip id="veh55" type="car" depart="27.5" from="802516063" to="-743160793#2"/>
    <trip id="veh56" type="car" depart="28.0" from="-265229350#3" to="802399783"/>
    <trip id="veh57" type="car" depart="28.5" from="1209731431" to="-746560519#0"/>
    <trip id="veh58" type="car" depart="29.0" from="-746834592#3" to="-344129938#2"/>
    <trip id="veh59" type="car" depart="29.5" from="802399775" to="-1209731431"/>
    <trip id="veh60" type="car" depart="30.0" from="-802486170#0" to="338648528#2"/>
    <trip id="veh61" type="car" depart="30.5" from="-749407285" to="344126028#1"/>
    <trip id="veh62" type="car" depart="31.0" from="743160793#4" to="802399778"/>
    <trip id="veh63" type="car" depart="31.5" from="736486718" to="-897966736"/>
    <trip id="veh64" type="car" depart="32.0" from="746834592#0" to="338648528#3"/>
    <trip id="veh65" type="car" depart="32.5" from="1458334191#2" to="1459998823#0"/>
    <trip id="veh66" type="car" depart="33.0" from="345391008#0" to="-897966736"/>
    <trip id="veh67" type="car" depart="33.5" from="345387876" to="-743160793#4"/>
    <trip id="veh68" type="car" depart="34.0" from="344126029#5" to="765389291"/>
    <trip id="veh69" type="car" depart="34.5" from="-802486161" to="345391011"/>
    <trip id="veh70" type="car" depart="35.0" from="-122488406#4" to="-802399774#1"/>
    <trip id="veh71" type="car" depart="35.5" from="1377702598#1" to="345390442#1"/>
    <trip id="veh72" type="car" depart="36.0" from="765389291" to="122488406#4"/>
    <trip id="veh73" type="car" depart="36.5" from="-344126024#1" to="345390444"/>
    <trip id="veh74" type="car" depart="37.0" from="1209952765" to="-1459998823#3"/>
    <trip id="veh75" type="car" depart="37.5" from="746560520#2" to="-802412032#0"/>
    <trip id="veh76" type="car" depart="38.0" from="345391008#1" to="745197852#1"/>
    <trip id="veh77" type="car" depart="38.5" from="122488406#4" to="-344074132#1"/>
    <trip id="veh78" type="car" depart="39.0" from="1209729401" to="-265229350#6"/>
    <trip id="veh79" type="car" depart="39.5" from="746834592#2" to="802386806#1"/>
    <trip id="veh80" type="car" depart="40.0" from="-802399783" to="345391009#2"/>
    <trip id="veh81" type="car" depart="40.5" from="-746560519#3" to="802516059#1"/>
    <trip id="veh82" type="car" depart="41.0" from="1458339974" to="802516059#0"/>
    <trip id="veh83" type="car" depart="41.5" from="-338648528#8" to="-802399799"/>
    <trip id="veh84" type="car" depart="42.0" from="344130935" to="-847580334#1"/>
    <trip id="veh85" type="car" depart="42.5" from="-930291019#1" to="-344129938#3"/>
    <trip id="veh86" type="car" depart="43.0" from="345391009#1" to="-847580334#0"/>
    <trip id="veh87" type="car" depart="43.5" from="-746834591" to="-265229350#1"/>
    <trip id="veh88" type="car" depart="44.0" from="-345390442#2" to="344126024#3"/>
    <trip id="veh89" type="car" depart="44.5" from="-265229350#4" to="-802399777#0"/>
    <trip id="veh90" type="car" depart="45.0" from="-345387880" to="1458334191#0"/>
    <trip id="veh91" type="car" depart="45.5" from="122488406#2" to="344126029#0"/>
    <trip id="veh92" type="car" depart="46.0" from="-802399783" to="-344215905#2"/>
    <trip id="veh93" type="car" depart="46.5" from="802399801" to="802399777#3"/>
    <trip id="veh94" type="car" depart="47.0" from="-847580334#0" to="802399779#0"/>
    <trip id="veh95" type="car" depart="47.5" from="-930291020#0" to="-344215905#0"/>
    <trip id="veh96" type="car" depart="48.0" from="-345387884" to="1458156148"/>
    <trip id="veh97" type="car" depart="48.5" from="1458156148" to="-897966736"/>
    <trip id="veh98" type="car" depart="49.0" from="-745514053" to="-802516067#1"/>
    <trip id="veh99" type="car" depart="49.5" from="749697301" to="-745536682"/>
    <trip id="veh100" type="car" depart="50.0" from="344074132#2" to="-1204149318"/>
    <trip id="veh101" type="car" depart="50.5" from="-1050840917" to="-338648528#4"/>
    <trip id="veh102" type="car" depart="51.0" from="802399799" to="265229350#7"/>
    <trip id="veh103" type="car" depart="51.5" from="338648528#5" to="-338648528#11"/>
    <trip id="veh104" type="car" depart="52.0" from="746560520#2" to="-802486169#0"/>
    <trip id="veh105" type="car" depart="52.5" from="-338648528#2" to="-745514053"/>
    <trip id="veh106" type="car" depart="53.0" from="930291020#1" to="-802516068#1"/>
    <trip id="veh107" type="car" depart="53.5" from="802399775" to="802516070"/>
    <trip id="veh108" type="car" depart="54.0" from="265229350#3" to="930291020#1"/>
    <trip id="veh109" type="car" depart="54.5" from="338648528#9" to="-1050839641"/>
    <trip id="veh110" type="car" depart="55.0" from="122488406#2" to="-1459998823#1"/>
    <trip id="veh111" type="car" depart="55.5" from="-745536682" to="-802765343"/>
    <trip id="veh112" type="car" depart="56.0" from="1209729401" to="-344126028#1"/>
    <trip id="veh113" type="car" depart="56.5" from="-1458334191#0" to="-802516061"/>
    <trip id="veh114" type="car" depart="57.0" from="344126029#6" to="-1458156153#2"/>
    <trip id="veh115" type="car" depart="57.5" from="-743160793#5" to="1459998823#2"/>
    <trip id="veh116" type="car" depart="58.0" from="-1050839644" to="802516064"/>
    <trip id="veh117" type="car" depart="58.5" from="344215905#3" to="-265229350#3"/>
    <trip id="veh118" type="car" depart="59.0" from="1304994252" to="-1050840917"/>
    <trip id="veh119" type="car" depart="59.5" from="736486718" to="345387876"/>
    <trip id="veh120" type="car" depart="60.0" from="345391012" to="338648528#9"/>
    <trip id="veh121" type="car" depart="60.5" from="1458156153#1" to="-1458334191#3"/>
    <trip id="veh122" type="car" depart="61.0" from="-338648528#4" to="-802486169#1"/>
    <trip id="veh123" type="car" depart="61.5" from="1209729401" to="-802516068#0"/>
    <trip id="veh124" type="car" depart="62.0" from="-743160793#0" to="743160793#3"/>
    <trip id="veh125" type="car" depart="62.5" from="-746560520#1" to="-345390442#3"/>
    <trip id="veh126" type="car" depart="63.0" from="749334674" to="-122488406#4"/>
    <trip id="veh127" type="car" depart="63.5" from="265229350#6" to="802516070"/>
    <trip id="veh128" type="car" depart="64.0" from="-745197852#1" to="-1050839645"/>
    <trip id="veh129" type="car" depart="64.5" from="345390443#0" to="1207396415"/>
    <trip id="veh130" type="car" depart="65.0" from="743160793#2" to="-338648528#3"/>
    <trip id="veh131" type="car" depart="65.5" from="1458156149#1" to="802516062"/>
    <trip id="veh132" type="car" depart="66.0" from="-745197852#1" to="802399777#1"/>
    <trip id="veh133" type="car" depart="66.5" from="746560519#1" to="344215905#2"/>
    <trip id="veh134" type="car" depart="67.0" from="1459114486" to="1377702599"/>
    <trip id="veh135" type="car" depart="67.5" from="746834592#3" to="265229350#5"/>
    <trip id="veh136" type="car" depart="68.0" from="1459998823#1" to="-1304994252"/>
    <trip id="veh137" type="car" depart="68.5" from="802486170#0" to="338648528#4"/>
    <trip id="veh138" type="car" depart="69.0" from="-122488406#3" to="802486170#1"/>
    <trip id="veh139" type="car" depart="69.5" from="-1458156153#2" to="-344074132#2"/>
    <trip id="veh140" type="car" depart="70.0" from="345390444" to="802486169#0"/>
    <trip id="veh141" type="car" depart="70.5" from="-344126024#3" to="345390443#0"/>
    <trip id="veh142" type="car" depart="71.0" from="1458236717#1" to="-344126028#1"/>
    <trip id="veh143" type="car" depart="71.5" from="-1207396415" to="1209729506"/>
    <trip id="veh144" type="car" depart="72.0" from="-344215905#1" to="265229350#9"/>
    <trip id="veh145" type="car" depart="72.5" from="-1458334191#0" to="344126029#5"/>
    <trip id="veh146" type="car" depart="73.0" from="345390447#1" to="344129938#3"/>
    <trip id="veh147" type="car" depart="73.5" from="746560520#0" to="-743160793#3"/>
    <trip id="veh148" type="car" depart="74.0" from="802516059#0" to="-1459998823#0"/>
    <trip id="veh149" type="car" depart="74.5" from="-1458236717#1" to="802516068#0"/>
    <trip id="veh150" type="car" depart="75.0" from="-802399799" to="-1458156149#1"/>
    <trip id="veh151" type="car" depart="75.5" from="-802399779#0" to="344126032"/>
    <trip id="veh152" type="car" depart="76.0" from="802516068#1" to="746560520#2"/>
    <trip id="veh153" type="car" depart="76.5" from="344126029#5" to="-847580334#0"/>
    <trip id="veh154" type="car" depart="77.0" from="-122488406#0" to="-338648528#11"/>
    <trip id="veh155" type="car" depart="77.5" from="-1458334191#2" to="-338648528#9"/>
    <trip id="veh156" type="car" depart="78.0" from="1209944601" to="-1459998823#6"/>
    <trip id="veh157" type="car" depart="78.5" from="-802386805" to="1458156153#2"/>
    <trip id="veh158" type="car" depart="79.0" from="-802399774#0" to="802399776"/>
    <trip id="veh159" type="car" depart="79.5" from="-802486171" to="1209729847"/>
    <trip id="veh160" type="car" depart="80.0" from="-265229350#3" to="-802516059#1"/>
    <trip id="veh161" type="car" depart="80.5" from="-344215905#0" to="-802399778"/>
    <trip id="veh162" type="car" depart="81.0" from="-802386806#0" to="1082081940"/>
    <trip id="veh163" type="car" depart="81.5" from="1459998823#1" to="345390443#2"/>
    <trip id="veh164" type="car" depart="82.0" from="344215905#3" to="-930291020#0"/>
    <trip id="veh165" type="car" depart="82.5" from="344215905#2" to="-802516068#0"/>
    <trip id="veh166" type="car" depart="83.0" from="338648528#2" to="122488406#0"/>
    <trip id="veh167" type="car" depart="83.5" from="802399774#2" to="745514053"/>
    <trip id="veh168" type="car" depart="84.0" from="-265229350#1" to="-338648528#2"/>
    <trip id="veh169" type="car" depart="84.5" from="345387876" to="-1209731431"/>
    <trip id="veh170" type="car" depart="85.0" from="-338648528#3" to="-344126029#4"/>
    <trip id="veh171" type="car" depart="85.5" from="-338648528#0" to="-802486161"/>
    <trip id="veh172" type="car" depart="86.0" from="-1458156154" to="802516064"/>
    <trip id="veh173" type="car" depart="86.5" from="-344126024#2" to="265229350#8"/>
    <trip id="veh174" type="car" depart="87.0" from="1458156154" to="-344126024#3"/>
    <trip id="veh175" type="car" depart="87.5" from="-1377702599" to="802399784"/>
    <trip id="veh176" type="car" depart="88.0" from="-802399798#2" to="746560519#3"/>
    <trip id="veh177" type="car" depart="88.5" from="122488406#4" to="1459998823#3"/>
    <trip id="veh178" type="car" depart="89.0" from="802399801" to="344215905#4"/>
    <trip id="veh179" type="car" depart="89.5" from="338648528#10" to="-749406407#1"/>
    <trip id="veh180" type="car" depart="90.0" from="-749697301" to="-344126029#3"/>
    <trip id="veh181" type="car" depart="90.5" from="1209728804" to="-749334674"/>
    <trip id="veh182" type="car" depart="91.0" from="802486170#0" to="802486170#1"/>
    <trip id="veh183" type="car" depart="91.5" from="802412032#1" to="802486169#0"/>
    <trip id="veh184" type="car" depart="92.0" from="344130935" to="1458334191#4"/>
    <trip id="veh185" type="car" depart="92.5" from="746560519#1" to="802399779#1"/>
    <trip id="veh186" type="car" depart="93.0" from="1458334191#2" to="1209944601"/>
    <trip id="veh187" type="car" depart="93.5" from="344126024#0" to="344130935"/>
    <trip id="veh188" type="car" depart="94.0" from="-345390446" to="-1209730481"/>
    <trip id="veh189" type="car" depart="94.5" from="-1209952765" to="-345390442#1"/>
    <trip id="veh190" type="car" depart="95.0" from="-344126029#3" to="-1209952765"/>
    <trip id="veh191" type="car" depart="95.5" from="-802399774#1" to="802516070"/>
    <trip id="veh192" type="car" depart="96.0" from="-345390445#1" to="-746560520#1"/>
    <trip id="veh193" type="car" depart="96.5" from="-743160793#2" to="-344129938#2"/>
    <trip id="veh194" type="car" depart="97.0" from="-344074132#3" to="1458334191#4"/>
    <trip id="veh195" type="car" depart="97.5" from="-344126028#0" to="1459998823#1"/>
    <trip id="veh196" type="car" depart="98.0" from="-344074132#3" to="1050839645"/>
    <trip id="veh197" type="car" depart="98.5" from="802516059#0" to="-1458438168"/>
    <trip id="veh198" type="car" depart="99.0" from="344215905#3" to="-338648528#0"/>
    <trip id="veh199" type="car" depart="99.5" from="-802516061" to="345390445#0"/>
    <trip id="veh200" type="car" depart="100.0" from="802516073" to="344126029#2"/>
    <trip id="veh201" type="car" depart="100.5" from="338648528#1" to="-802399777#1"/>
    <trip id="veh202" type="car" depart="101.0" from="1458156149#0" to="-802399773"/>
    <trip id="veh203" type="car" depart="101.5" from="-802399775" to="1459998823#3"/>
    <trip id="veh204" type="car" depart="102.0" from="743160793#0" to="-746560519#0"/>
    <trip id="veh205" type="car" depart="102.5" from="-802486170#1" to="1082081940"/>
    <trip id="veh206" type="car" depart="103.0" from="847580334#0" to="-802516069"/>
    <trip id="veh207" type="car" depart="103.5" from="802516062" to="743160793#0"/>
    <trip id="veh208" type="car" depart="104.0" from="345391011" to="-747183754"/>
    <trip id="veh209" type="car" depart="104.5" from="-746560519#3" to="1050839644"/>
    <trip id="veh210" type="car" depart="105.0" from="1459998823#6" to="344126029#4"/>
    <trip id="veh211" type="car" depart="105.5" from="345390443#2" to="344126026"/>
    <trip id="veh212" type="car" depart="106.0" from="-745197852#0" to="1459998823#6"/>
    <trip id="veh213" type="car" depart="106.5" from="-802486161" to="-802412032#1"/>
    <trip id="veh214" type="car" depart="107.0" from="265229350#6" to="345390447#1"/>
    <trip id="veh215" type="car" depart="107.5" from="-344126029#5" to="745197852#1"/>
    <trip id="veh216" type="car" depart="108.0" from="-745591121#1" to="1209729127"/>
    <trip id="veh217" type="car" depart="108.5" from="-345391008#1" to="743160793#2"/>
    <trip id="veh218" type="car" depart="109.0" from="-1458236717#1" to="-802399779#0"/>
    <trip id="veh219" type="car" depart="109.5" from="345390446" to="345390442#0"/>
    <trip id="veh220" type="car" depart="110.0" from="-338648528#11" to="265229350#0"/>
    <trip id="veh221" type="car" depart="110.5" from="930291019#0" to="-930291019#0"/>
    <trip id="veh222" type="car" depart="111.0" from="1458236717#1" to="-802399779#0"/>
    <trip id="veh223" type="car" depart="111.5" from="802399775" to="802486164"/>
    <trip id="veh224" type="car" depart="112.0" from="265229350#9" to="749407285"/>
    <trip id="veh225" type="car" depart="112.5" from="-1209729506" to="1459998823#7"/>
    <trip id="veh226" type="car" depart="113.0" from="-338648528#10" to="344129938#1"/>
    <trip id="veh227" type="car" depart="113.5" from="802399777#0" to="1458156148"/>
    <trip id="veh228" type="car" depart="114.0" from="-802516066" to="-802486170#0"/>
    <trip id="veh229" type="car" depart="114.5" from="802486170#0" to="-746560520#3"/>
    <trip id="veh230" type="car" depart="115.0" from="-802516066" to="345390443#1"/>
    <trip id="veh231" type="car" depart="115.5" from="-1459114486" to="344130935"/>
    <trip id="veh232" type="car" depart="116.0" from="-1458334191#3" to="-338648528#8"/>
    <trip id="veh233" type="car" depart="116.5" from="1209944601" to="-338648528#5"/>
    <trip id="veh234" type="car" depart="117.0" from="-1459998823#0" to="265229350#2"/>
    <trip id="veh235" type="car" depart="117.5" from="345390445#0" to="-345387882"/>
    <trip id="veh236" type="car" depart="118.0" from="745591121#1" to="802486169#1"/>
    <trip id="veh237" type="car" depart="118.5" from="-345390442#0" to="802486169#1"/>
    <trip id="veh238" type="car" depart="119.0" from="-802399799" to="265229350#4"/>
    <trip id="veh239" type="car" depart="119.5" from="1050839653" to="-265229350#5"/>
    <trip id="veh240" type="car" depart="120.0" from="-1209729127" to="-1209952765"/>
    <trip id="veh241" type="car" depart="120.5" from="345390445#1" to="344126029#0"/>
    <trip id="veh242" type="car" depart="121.0" from="1458334191#2" to="-802516069"/>
    <trip id="veh243" type="car" depart="121.5" from="1459998823#0" to="-345387884"/>
    <trip id="veh244" type="car" depart="122.0" from="-1459998823#4" to="746560520#2"/>
    <trip id="veh245" type="car" depart="122.5" from="1458339974" to="802399798#2"/>
    <trip id="veh246" type="car" depart="123.0" from="265229350#0" to="-1207396415"/>
    <trip id="veh247" type="car" depart="123.5" from="1459998823#4" to="-1209944601"/>
    <trip id="veh248" type="car" depart="124.0" from="802386806#1" to="-802399798#1"/>
    <trip id="veh249" type="car" depart="124.5" from="344126028#0" to="344126032"/>
    <trip id="veh250" type="car" depart="125.0" from="345390446" to="345391008#1"/>
    <trip id="veh251" type="car" depart="125.5" from="-802516074#1" to="1209731431"/>
    <trip id="veh252" type="car" depart="126.0" from="-345391008#0" to="-344126028#1"/>
    <trip id="veh253" type="car" depart="126.5" from="749697301" to="-802399776"/>
    <trip id="veh254" type="car" depart="127.0" from="338648528#0" to="-749334674"/>
    <trip id="veh255" type="car" depart="127.5" from="-1458334191#4" to="-1459114486"/>
    <trip id="veh256" type="car" depart="128.0" from="345387880" to="345390442#4"/>
    <trip id="veh257" type="car" depart="128.5" from="802486170#1" to="-265229350#5"/>
    <trip id="veh258" type="car" depart="129.0" from="-802486168" to="-338648528#10"/>
    <trip id="veh259" type="car" depart="129.5" from="-930291019#0" to="-749406407#1"/>
    <trip id="veh260" type="car" depart="130.0" from="-345390443#0" to="743160793#3"/>
    <trip id="veh261" type="car" depart="130.5" from="-338648528#0" to="344074132#1"/>
    <trip id="veh262" type="car" depart="131.0" from="345391008#2" to="-746560519#1"/>
    <trip id="veh263" type="car" depart="131.5" from="122488406#1" to="-345391009#2"/>
    <trip id="veh264" type="car" depart="132.0" from="-746560519#2" to="746834592#0"/>
    <trip id="veh265" type="car" depart="132.5" from="802516074#0" to="345390447#0"/>
    <trip id="veh266" type="car" depart="133.0" from="-802516068#1" to="122488406#2"/>
    <trip id="veh267" type="car" depart="133.5" from="1050839641" to="-1458438168"/>
    <trip id="veh268" type="car" depart="134.0" from="-746834591" to="338648528#8"/>
    <trip id="veh269" type="car" depart="134.5" from="802386806#1" to="-338648528#11"/>
    <trip id="veh270" type="car" depart="135.0" from="-122488406#4" to="736486718"/>
    <trip id="veh271" type="car" depart="135.5" from="-802516068#1" to="-1458156153#0"/>
    <trip id="veh272" type="car" depart="136.0" from="-802399776" to="802412033"/>
    <trip id="veh273" type="car" depart="136.5" from="802386806#1" to="344129938#1"/>
    <trip id="veh274" type="car" depart="137.0" from="802516069" to="1458156149#0"/>
    <trip id="veh275" type="car" depart="137.5" from="-344074132#1" to="-749407285"/>
    <trip id="veh276" type="car" depart="138.0" from="802516061" to="344126029#6"/>
    <trip id="veh277" type="car" depart="138.5" from="1459998823#0" to="-345390445#0"/>
    <trip id="veh278" type="car" depart="139.0" from="930291020#1" to="1458156153#2"/>
    <trip id="veh279" type="car" depart="139.5" from="-802516074#1" to="897966736"/>
    <trip id="veh280" type="car" depart="140.0" from="344215905#2" to="930291019#1"/>
    <trip id="veh281" type="car" depart="140.5" from="338648528#0" to="802386805"/>
    <trip id="veh282" type="car" depart="141.0" from="-930291019#0" to="-802386806#1"/>
    <trip id="veh283" type="car" depart="141.5" from="344126024#2" to="1207396415"/>
    <trip id="veh284" type="car" depart="142.0" from="345390447#0" to="743160793#2"/>
    <trip id="veh285" type="car" depart="142.5" from="-345390442#3" to="-743160793#0"/>
    <trip id="veh286" type="car" depart="143.0" from="-746834592#2" to="-897966736"/>
    <trip id="veh287" type="car" depart="143.5" from="-746560519#2" to="-338648528#11"/>
    <trip id="veh288" type="car" depart="144.0" from="802399780" to="802399777#2"/>
    <trip id="veh289" type="car" depart="144.5" from="930291020#0" to="338648528#11"/>
    <trip id="veh290" type="car" depart="145.0" from="-338648528#2" to="1458334191#0"/>
    <trip id="veh291" type="car" depart="145.5" from="-345391012" to="1209952765"/>
    <trip id="veh292" type="car" depart="146.0" from="344074132#0" to="344215905#0"/>
    <trip id="veh293" type="car" depart="146.5" from="-802412032#0" to="338648528#4"/>
    <trip id="veh294" type="car" depart="147.0" from="344126024#3" to="1209944259"/>
    <trip id="veh295" type="car" depart="147.5" from="344126026" to="-265229350#4"/>
    <trip id="veh296" type="car" depart="148.0" from="265229350#6" to="338648528#8"/>
    <trip id="veh297" type="car" depart="148.5" from="-344074132#3" to="802399799"/>
    <trip id="veh298" type="car" depart="149.0" from="1107087158" to="-736486718"/>
    <trip id="veh299" type="car" depart="149.5" from="1209731431" to="-802399780"/>
    <trip id="veh300" type="car" depart="150.0" from="-1459998823#1" to="802399780"/>
    <trip id="veh301" type="car" depart="150.5" from="345390442#1" to="-338648528#9"/>
    <trip id="veh302" type="car" depart="151.0" from="-802516059#1" to="-1458156153#2"/>
    <trip id="veh303" type="car" depart="151.5" from="802516067#0" to="802399772"/>
    <trip id="veh304" type="car" depart="152.0" from="-345390441" to="930291020#1"/>
    <trip id="veh305" type="car" depart="152.5" from="-344126024#1" to="-743160793#2"/>
    <trip id="veh306" type="car" depart="153.0" from="-743160793#2" to="930291021"/>
    <trip id="veh307" type="car" depart="153.5" from="345390443#0" to="-345387882"/>
    <trip id="veh308" type="car" depart="154.0" from="-930291019#0" to="345390442#3"/>
    <trip id="veh309" type="car" depart="154.5" from="-122488406#3" to="-1459998823#4"/>
    <trip id="veh310" type="car" depart="155.0" from="1209731431" to="1458224698"/>
    <trip id="veh311" type="car" depart="155.5" from="802399798#2" to="-1209944601"/>
    <trip id="veh312" type="car" depart="156.0" from="-1458156155" to="-345390443#2"/>
    <trip id="veh313" type="car" depart="156.5" from="-1458334191#4" to="344126029#1"/>
    <trip id="veh314" type="car" depart="157.0" from="-344129938#0" to="-338648528#1"/>
    <trip id="veh315" type="car" depart="157.5" from="746834592#1" to="338648528#2"/>
    <trip id="veh316" type="car" depart="158.0" from="1209728804" to="-749653881#1"/>
    <trip id="veh317" type="car" depart="158.5" from="930291020#1" to="-743160793#5"/>
    <trip id="veh318" type="car" depart="159.0" from="-802399784" to="345391008#1"/>
    <trip id="veh319" type="car" depart="159.5" from="345390442#0" to="-847580334#0"/>
    <trip id="veh320" type="car" depart="160.0" from="1458334191#1" to="-802399777#0"/>
    <trip id="veh321" type="car" depart="160.5" from="344126029#0" to="-1459998823#1"/>
    <trip id="veh322" type="car" depart="161.0" from="-344126024#2" to="265229350#2"/>
    <trip id="veh323" type="car" depart="161.5" from="802412032#1" to="-802516059#1"/>
    <trip id="veh324" type="car" depart="162.0" from="746560519#0" to="-802386805"/>
    <trip id="veh325" type="car" depart="162.5" from="-345391012" to="745591121#0"/>
    <trip id="veh326" type="car" depart="163.0" from="802516059#1" to="802516070"/>
    <trip id="veh327" type="car" depart="163.5" from="802399778" to="-1459998823#5"/>
    <trip id="veh328" type="car" depart="164.0" from="746560519#3" to="1459998823#1"/>
    <trip id="veh329" type="car" depart="164.5" from="749406407#1" to="802399777#3"/>
    <trip id="veh330" type="car" depart="165.0" from="749406407#0" to="1458334191#3"/>
    <trip id="veh331" type="car" depart="165.5" from="930291020#0" to="1377702598#1"/>
    <trip id="veh332" type="car" depart="166.0" from="-746560519#1" to="344126024#3"/>
    <trip id="veh333" type="car" depart="166.5" from="802516059#0" to="-802386809"/>
    <trip id="veh334" type="car" depart="167.0" from="-802516074#1" to="1459998823#4"/>
    <trip id="veh335" type="car" depart="167.5" from="746560519#2" to="802486164"/>
    <trip id="veh336" type="car" depart="168.0" from="1082081940" to="-1377702599"/>
    <trip id="veh337" type="car" depart="168.5" from="-749407285" to="-802386809"/>
    <trip id="veh338" type="car" depart="169.0" from="1458156153#1" to="1050839644"/>
    <trip id="veh339" type="car" depart="169.5" from="-338648528#11" to="736486718"/>
    <trip id="veh340" type="car" depart="170.0" from="-1209944259" to="-345387884"/>
    <trip id="veh341" type="car" depart="170.5" from="-802399772" to="-345391009#1"/>
    <trip id="veh342" type="car" depart="171.0" from="746834592#0" to="122488406#4"/>
    <trip id="veh343" type="car" depart="171.5" from="-746834592#2" to="-345391012"/>
    <trip id="veh344" type="car" depart="172.0" from="344126024#4" to="-1459114486"/>
    <trip id="veh345" type="car" depart="172.5" from="-345390447#1" to="-1209731431"/>
    <trip id="veh346" type="car" depart="173.0" from="-122488406#1" to="-345391011"/>
    <trip id="veh347" type="car" depart="173.5" from="344129938#0" to="-1050839641"/>
    <trip id="veh348" type="car" depart="174.0" from="265229350#4" to="-1459998823#5"/>
    <trip id="veh349" type="car" depart="174.5" from="802412032#1" to="1209944259"/>
    <trip id="veh350" type="car" depart="175.0" from="-746560519#1" to="1458236717#1"/>