<?xml version="1.0" encoding="UTF-8"?>

<!-- generated on 2026-03-17 23:18:42 by Eclipse SUMO netconvert Version 1.24.0
<netconvertConfiguration xmlns:xsi="http://www.w3.org/2001/XMLSchema-instance" xsi:noNamespaceSchemaLocation="http://sumo.dlr.de/xsd/netconvertConfiguration.xsd">

    <input>
        <osm-files value="map.osm"/>
    </input>

    <output>
        <output-file value="map.net.xml"/>
    </output>

    <projection>
        <proj.utm value="true"/>
    </projection>

    <report>
        <no-warnings value="true"/>
    </report>

</netconvertConfiguration>
-->

<net version="1.20" junctionCornerDetail="5" limitTurnSpeed="5.50" xmlns:xsi="http://www.w3.org/2001/XMLSchema-instance" xsi:noNamespaceSchemaLocation="http://sumo.dlr.de/xsd/net_file.xsd">

    <location netOffset="-695507.62,-954431.22" convBoundary="0.00,0.00,6843.21,4603.96" origBoundary="76.768794,8.630075,76.839027,8.671871" projParameter="+proj=utm +zone=43 +ellps=WGS84 +datum=WGS84 +units=m +no_defs"/>

    <type id="highway.footway" priority="1" numLanes="1" speed="2.78" allow="pedestrian" oneway="1" width="2.00"/>
    <type id="highway.residential" priority="3" numLanes="1" speed="13.89" disallow="tram rail_urban rail rail_electric rail_fast ship container cable_car subway aircraft wheelchair scooter drone" oneway="0"/>
    <type id="highway.secondary" priority="11" numLanes="1" speed="27.78" disallow="tram rail_urban rail rail_electric rail_fast ship container cable_car subway aircraft wheelchair scooter drone" oneway="0"/>
    <type id="highway.service" priority="1" numLanes="1" speed="5.56" allow="pedestrian delivery bicycle" oneway="0"/>
    <type id="highway.tertiary" priority="10" numLanes="1" speed="22.22" disallow="tram rail_urban rail rail_electric rail_fast ship container cable_car subway aircraft wheelchair scooter drone" oneway="0"/>
    <type id="highway.unclassified" priority="4" numLanes="1" speed="13.89" disallow="tram rail_urban rail rail_electric rail_fast ship container cable_car subway aircraft wheelchair scooter drone" oneway="0"/>

    <edge id=":10604018858_0" function="internal">
        <lane id=":10604018858_0_0" index="0" disallow="tram rail_urban rail rail_electric rail_fast ship container cable_car subway aircraft wheelchair scooter drone" speed="7.05" length="9.73" shape="909.64,2447.56 907.56,2445.69 905.43,2444.79 903.26,2444.85 901.04,2445.87"/>
    </edge>
    <edge id=":10604018858_1" function="internal">
        <lane id=":10604018858_1_0" index="0" disallow="tram rail_urban rail rail_electric rail_fast ship container cable_car subway aircraft wheelchair scooter drone" speed="9.04" length="14.06" shape="909.64,2447.56 908.14,2444.96 907.79,2441.92 908.58,2438.42 910.52,2434.46"/>
    </edge>
    <edge id=":10604018858_2" function="internal">
        <lane id=":10604018858_2_0" index="0" disallow="tram rail_urban rail rail_electric rail_fast ship container cable_car subway aircraft wheelchair scooter drone" speed="3.65" length="4.67" shape="909.64,2447.56 909.45,2446.13 909.79,2445.30 910.65,2445.07 912.05,2445.45"/>
    </edge>
    <edge id=":10604018858_3" function="internal">
        <lane id=":10604018858_3_0" index="0" disallow="tram rail_urban rail rail_electric rail_fast ship container cable_car subway aircraft wheelchair scooter drone" speed="7.23" length="8.71" shape="912.53,2437.34 911.34,2439.77 910.86,2441.93 911.10,2443.82 912.05,2445.45"/>
    </edge>
    <edge id=":10604018858_4" function="internal">
        <lane id=":10604018858_4_0" index="0" disallow="tram rail_urban rail rail_electric rail_fast ship container cable_car subway aircraft wheelchair scooter drone" speed="13.89" length="14.46" shape="912.53,2437.34 910.23,2440.09 907.37,2442.17 904.22,2443.97 901.04,2445.87"/>
    </edge>
    <edge id=":10604018858_5" function="internal">
        <lane id=":10604018858_5_0" index="0" disallow="tram rail_urban rail rail_electric rail_fast ship container cable_car subway aircraft wheelchair scooter drone" speed="3.76" length="1.58" shape="912.53,2437.34 910.95,2437.37"/>
    </edge>
    <edge id=":10604018858_9" function="internal">
        <lane id=":10604018858_9_0" index="0" disallow="tram rail_urban rail rail_electric rail_fast ship container cable_car subway aircraft wheelchair scooter drone" speed="3.76" length="3.54" shape="910.95,2437.37 910.09,2436.90 909.95,2435.93 910.52,2434.46"/>
    </edge>
    <edge id=":10604018858_6" function="internal">
        <lane id=":10604018858_6_0" index="0" disallow="tram rail_urban rail rail_electric rail_fast ship container cable_car subway aircraft wheelchair scooter drone" speed="13.89" length="14.41" shape="899.25,2443.21 902.40,2441.28 905.48,2439.40 908.26,2437.25 910.52,2434.46"/>
    </edge>
    <edge id=":10604018858_7" function="internal">
        <lane id=":10604018858_7_0" index="0" disallow="tram rail_urban rail rail_electric rail_fast ship container cable_car subway aircraft wheelchair scooter drone" speed="8.46" length="4.27" shape="899.25,2443.21 902.61,2441.64 903.17,2441.61"/>
    </edge>
    <edge id=":10604018858_8" function="internal">
        <lane id=":10604018858_8_0" index="0" disallow="tram rail_urban rail rail_electric rail_fast ship container cable_car subway aircraft wheelchair scooter drone" speed="3.65" length="1.44" shape="899.25,2443.21 900.70,2443.21"/>
    </edge>
    <edge id=":10604018858_10" function="internal">
        <lane id=":10604018858_10_0" index="0" disallow="tram rail_urban rail rail_electric rail_fast ship container cable_car subway aircraft wheelchair scooter drone" speed="8.46" length="10.14" shape="903.17,2441.61 905.86,2441.49 909.01,2442.75 912.05,2445.45"/>
    </edge>
    <edge id=":10604018858_11" function="internal">
        <lane id=":10604018858_11_0" index="0" disallow="tram rail_urban rail rail_electric rail_fast ship container cable_car subway aircraft wheelchair scooter drone" speed="3.65" length="3.23" shape="900.70,2443.21 901.47,2443.65 901.59,2444.54 901.04,2445.87"/>
    </edge>
    <edge id=":10604018862_0" function="internal">
        <lane id=":10604018862_0_0" index="0" disallow="tram rail_urban rail rail_electric rail_fast ship container cable_car subway aircraft wheelchair scooter drone" speed="22.22" length="14.12" shape="1012.69,2559.09 998.58,2559.78"/>
    </edge>
    <edge id=":10604018862_1" function="internal">
        <lane id=":10604018862_1_0" index="0" disallow="tram rail_urban rail rail_electric rail_fast ship container cable_car subway aircraft wheelchair scooter drone" speed="8.75" length="3.60" shape="1012.69,2559.09 1009.12,2558.57"/>
    </edge>
    <edge id=":10604018862_2" function="internal">
        <lane id=":10604018862_2_0" index="0" disallow="tram rail_urban rail rail_electric rail_fast ship container cable_car subway aircraft wheelchair scooter drone" speed="3.65" length="1.44" shape="1012.69,2559.09 1011.48,2558.30"/>
    </edge>
    <edge id=":10604018862_9" function="internal">
        <lane id=":10604018862_9_0" index="0" disallow="tram rail_urban rail rail_electric rail_fast ship container cable_car subway aircraft wheelchair scooter drone" speed="8.75" length="10.75" shape="1009.12,2558.57 1006.29,2556.95 1004.20,2554.23 1002.83,2550.41"/>
    </edge>
    <edge id=":10604018862_10" function="internal">
        <lane id=":10604018862_10_0" index="0" disallow="tram rail_urban rail rail_electric rail_fast ship container cable_car subway aircraft wheelchair scooter drone" speed="3.65" length="3.23" shape="1011.48,2558.30 1011.08,2557.50 1011.47,2556.70 1012.66,2555.89"/>
    </edge>
    <edge id=":10604018862_3" function="internal">
        <lane id=":10604018862_3_0" index="0" disallow="tram rail_urban rail rail_electric rail_fast ship container cable_car subway aircraft wheelchair scooter drone" speed="7.39" length="9.97" shape="1005.95,2549.69 1006.91,2552.42 1008.34,2554.36 1010.26,2555.51 1012.66,2555.89"/>
    </edge>
    <edge id=":10604018862_4" function="internal">
        <lane id=":10604018862_4_0" index="0" disallow="tram rail_urban rail rail_electric rail_fast ship container cable_car subway aircraft wheelchair scooter drone" speed="7.77" length="14.75" shape="1005.95,2549.69 1006.29,2553.81 1005.17,2556.86 1002.60,2558.85 998.58,2559.78"/>
    </edge>
    <edge id=":10604018862_5" function="internal">
        <lane id=":10604018862_5_0" index="0" disallow="tram rail_urban rail rail_electric rail_fast ship container cable_car subway aircraft wheelchair scooter drone" speed="3.65" length="4.67" shape="1005.95,2549.69 1005.44,2551.04 1004.75,2551.61 1003.88,2551.40 1002.83,2550.41"/>
    </edge>
    <edge id=":10604018862_6" function="internal">
        <lane id=":10604018862_6_0" index="0" disallow="tram rail_urban rail rail_electric rail_fast ship container cable_car subway aircraft wheelchair scooter drone" speed="6.23" length="9.05" shape="998.31,2556.59 1000.78,2556.02 1002.35,2554.80 1003.04,2552.93 1002.83,2550.41"/>
    </edge>
    <edge id=":10604018862_7" function="internal">
        <lane id=":10604018862_7_0" index="0" disallow="tram rail_urban rail rail_electric rail_fast ship container cable_car subway aircraft wheelchair scooter drone" speed="22.22" length="14.37" shape="998.31,2556.59 1012.66,2555.89"/>
    </edge>
    <edge id=":10604018862_8" function="internal">
        <lane id=":10604018862_8_0" index="0" disallow="tram rail_urban rail rail_electric rail_fast ship container cable_car subway aircraft wheelchair scooter drone" speed="3.65" length="1.44" shape="998.31,2556.59 999.58,2557.29"/>
    </edge>
    <edge id=":10604018862_11" function="internal">
        <lane id=":10604018862_11_0" index="0" disallow="tram rail_urban rail rail_electric rail_fast ship container cable_car subway aircraft wheelchair scooter drone" speed="3.65" length="3.23" shape="999.58,2557.29 1000.04,2558.05 999.71,2558.88 998.58,2559.78"/>
    </edge>
    <edge id=":10604018867_0" function="internal">
        <lane id=":10604018867_0_0" index="0" disallow="tram rail_urban rail rail_electric rail_fast ship container cable_car subway aircraft wheelchair scooter drone" speed="3.65" length="4.67" shape="850.46,2315.02 850.28,2313.58 850.63,2312.76 851.49,2312.54 852.88,2312.93"/>
    </edge>
    <edge id=":10657158681_0" function="internal">
        <lane id=":10657158681_0_0" index="0" disallow="tram rail_urban rail rail_electric rail_fast ship container cable_car subway aircraft wheelchair scooter drone" speed="13.89" length="0.44" shape="671.60,3392.09 671.58,3391.96 671.56,3391.87 671.55,3391.78 671.54,3391.65"/>
    </edge>
    <edge id=":10657158681_1" function="internal">
        <lane id=":10657158681_1_0" index="0" disallow="tram rail_urban rail rail_electric rail_fast ship container cable_car subway aircraft wheelchair scooter drone" speed="13.89" length="0.15" shape="674.73,3391.36 674.73,3391.40 674.74,3391.43 674.74,3391.46 674.75,3391.50"/>
    </edge>
    <edge id=":10657158684_0" function="internal">
        <lane id=":10657158684_0_0" index="0" disallow="tram rail_urban rail rail_electric rail_fast ship container cable_car subway aircraft wheelchair scooter drone" speed="3.97" length="1.92" shape="663.84,3310.30 663.75,3309.81 663.54,3309.41 663.21,3309.10 662.76,3308.88"/>
    </edge>
    <edge id=":10657158684_1" function="internal">
        <lane id=":10657158684_1_0" index="0" disallow="tram rail_urban rail rail_electric rail_fast ship container cable_car subway aircraft wheelchair scooter drone" speed="6.20" length="5.75" shape="663.78,3305.84 665.13,3306.50 666.13,3307.43 666.77,3308.64 667.04,3310.12"/>
    </edge>
    <edge id=":10657158686_0" function="internal">
        <lane id=":10657158686_0_0" index="0" disallow="tram rail_urban rail rail_electric rail_fast ship container cable_car subway aircraft wheelchair scooter drone" speed="6.46" length="9.14" shape="600.67,3183.15 598.24,3182.62 596.24,3183.02 594.67,3184.36 593.53,3186.65"/>
    </edge>
    <edge id=":10657158686_1" function="internal">
        <lane id=":10657158686_1_0" index="0" disallow="tram rail_urban rail rail_electric rail_fast ship container cable_car subway aircraft wheelchair scooter drone" speed="27.78" length="14.59" shape="600.67,3183.15 597.10,3182.10 593.51,3181.27 590.10,3180.16 587.04,3178.27"/>
    </edge>
    <edge id=":10657158686_2" function="internal">
        <lane id=":10657158686_2_0" index="0" disallow="tram rail_urban rail rail_electric rail_fast ship container cable_car subway aircraft wheelchair scooter drone" speed="3.65" length="1.44" shape="600.67,3183.15 599.83,3181.98"/>
    </edge>
    <edge id=":10657158686_9" function="internal">
        <lane id=":10657158686_9_0" index="0" disallow="tram rail_urban rail rail_electric rail_fast ship container cable_car subway aircraft wheelchair scooter drone" speed="3.65" length="3.23" shape="599.83,3181.98 599.74,3181.09 600.40,3180.48 601.80,3180.16"/>
    </edge>
    <edge id=":10657158686_3" function="internal">
        <lane id=":10657158686_3_0" index="0" disallow="tram rail_urban rail rail_electric rail_fast ship container cable_car subway aircraft wheelchair scooter drone" speed="27.78" length="14.92" shape="587.97,3174.84 591.06,3176.80 594.55,3178.06 598.20,3179.04 601.80,3180.16"/>
    </edge>
    <edge id=":10657158686_4" function="internal">
        <lane id=":10657158686_4_0" index="0" disallow="tram rail_urban rail rail_electric rail_fast ship container cable_car subway aircraft wheelchair scooter drone" speed="9.34" length="3.99" shape="587.97,3174.84 590.78,3177.67"/>
    </edge>
    <edge id=":10657158686_5" function="internal">
        <lane id=":10657158686_5_0" index="0" disallow="tram rail_urban rail rail_electric rail_fast ship container cable_car subway aircraft wheelchair scooter drone" speed="3.78" length="2.00" shape="587.97,3174.84 589.02,3176.04 589.10,3176.43"/>
    </edge>
    <edge id=":10657158686_10" function="internal">
        <lane id=":10657158686_10_0" index="0" disallow="tram rail_urban rail rail_electric rail_fast ship container cable_car subway aircraft wheelchair scooter drone" speed="9.34" length="9.82" shape="590.78,3177.67 591.08,3177.97 593.05,3180.99 593.86,3183.88 593.53,3186.65"/>
    </edge>
    <edge id=":10657158686_11" function="internal">
        <lane id=":10657158686_11_0" index="0" disallow="tram rail_urban rail rail_electric rail_fast ship container cable_car subway aircraft wheelchair scooter drone" speed="3.78" length="3.19" shape="589.10,3176.43 589.22,3177.02 588.55,3177.76 587.04,3178.27"/>
    </edge>
    <edge id=":10657158686_6" function="internal">
        <lane id=":10657158686_6_0" index="0" disallow="tram rail_urban rail rail_electric rail_fast ship container cable_car subway aircraft wheelchair scooter drone" speed="7.49" length="8.61" shape="590.50,3185.63 590.71,3183.91 590.20,3182.10 588.97,3180.22 587.04,3178.27"/>
    </edge>
    <edge id=":10657158686_7" function="internal">
        <lane id=":10657158686_7_0" index="0" disallow="tram rail_urban rail rail_electric rail_fast ship container cable_car subway aircraft wheelchair scooter drone" speed="7.96" length="14.46" shape="590.50,3185.63 592.29,3182.04 594.77,3179.93 597.94,3179.31 601.80,3180.16"/>
    </edge>
    <edge id=":10657158686_8" function="internal">
        <lane id=":10657158686_8_0" index="0" disallow="tram rail_urban rail rail_electric rail_fast ship container cable_car subway aircraft wheelchair scooter drone" speed="3.65" length="4.67" shape="590.50,3185.63 591.64,3184.75 592.52,3184.62 593.16,3185.26 593.53,3186.65"/>
    </edge>
    <edge id=":10657158691_0" function="internal">
        <lane id=":10657158691_0_0" index="0" disallow="tram rail_urban rail rail_electric rail_fast ship container cable_car subway aircraft wheelchair scooter drone" speed="7.46" length="10.09" shape="689.84,3462.59 688.66,3460.46 686.90,3459.04 684.54,3458.34 681.60,3458.36"/>
    </edge>
    <edge id=":10657158691_1" function="internal">
        <lane id=":10657158691_1_0" index="0" disallow="tram rail_urban rail rail_electric rail_fast ship container cable_car subway aircraft wheelchair scooter drone" speed="13.89" length="14.43" shape="689.84,3462.59 685.44,3448.85"/>
    </edge>
    <edge id=":10657158691_2" function="internal">
        <lane id=":10657158691_2_0" index="0" disallow="tram rail_urban rail rail_electric rail_fast ship container cable_car subway aircraft wheelchair scooter drone" speed="3.65" length="1.44" shape="689.84,3462.59 690.19,3461.19"/>
    </edge>
    <edge id=":10657158691_9" function="internal">
        <lane id=":10657158691_9_0" index="0" disallow="tram rail_urban rail rail_electric rail_fast ship container cable_car subway aircraft wheelchair scooter drone" speed="3.65" length="3.23" shape="690.19,3461.19 690.81,3460.54 691.70,3460.65 692.85,3461.52"/>
    </edge>
    <edge id=":10657158691_3" function="internal">
        <lane id=":10657158691_3_0" index="0" disallow="tram rail_urban rail rail_electric rail_fast ship container cable_car subway aircraft wheelchair scooter drone" speed="13.89" length="14.25" shape="688.51,3447.95 692.85,3461.52"/>
    </edge>
    <edge id=":10657158691_4" function="internal">
        <lane id=":10657158691_4_0" index="0" disallow="tram rail_urban rail rail_electric rail_fast ship container cable_car subway aircraft wheelchair scooter drone" speed="7.73" length="4.05" shape="688.51,3447.95 689.08,3451.96"/>
    </edge>
    <edge id=":10657158691_5" function="internal">
        <lane id=":10657158691_5_0" index="0" disallow="tram rail_urban rail rail_electric rail_fast ship container cable_car subway aircraft wheelchair scooter drone" speed="3.65" length="1.44" shape="688.51,3447.95 688.08,3449.33"/>
    </edge>
    <edge id=":10657158691_10" function="internal">
        <lane id=":10657158691_10_0" index="0" disallow="tram rail_urban rail rail_electric rail_fast ship container cable_car subway aircraft wheelchair scooter drone" speed="7.73" length="10.83" shape="689.08,3451.96 689.10,3452.09 688.14,3455.20 685.64,3457.29 681.60,3458.36"/>
    </edge>
    <edge id=":10657158691_11" function="internal">
        <lane id=":10657158691_11_0" index="0" disallow="tram rail_urban rail rail_electric rail_fast ship container cable_car subway aircraft wheelchair scooter drone" speed="3.65" length="3.23" shape="688.08,3449.33 687.43,3449.93 686.55,3449.77 685.44,3448.85"/>
    </edge>
    <edge id=":10657158691_6" function="internal">
        <lane id=":10657158691_6_0" index="0" disallow="tram rail_urban rail rail_electric rail_fast ship container cable_car subway aircraft wheelchair scooter drone" speed="6.17" length="9.05" shape="681.23,3455.18 683.69,3454.53 685.21,3453.26 685.80,3451.36 685.44,3448.85"/>
    </edge>
    <edge id=":10657158691_7" function="internal">
        <lane id=":10657158691_7_0" index="0" disallow="tram rail_urban rail rail_electric rail_fast ship container cable_car subway aircraft wheelchair scooter drone" speed="8.82" length="14.44" shape="681.23,3455.18 685.34,3455.19 688.64,3456.25 691.15,3458.36 692.85,3461.52"/>
    </edge>
    <edge id=":10657158691_8" function="internal">
        <lane id=":10657158691_8_0" index="0" disallow="tram rail_urban rail rail_electric rail_fast ship container cable_car subway aircraft wheelchair scooter drone" speed="3.65" length="4.67" shape="681.23,3455.18 682.52,3455.84 683.01,3456.59 682.70,3457.43 681.60,3458.36"/>
    </edge>
    <edge id=":10848483058_0" function="internal">
        <lane id=":10848483058_0_0" index="0" disallow="tram rail_urban rail rail_electric rail_fast ship container cable_car subway aircraft wheelchair scooter drone" speed="3.65" length="4.67" shape="2485.26,3064.78 2484.33,3063.68 2484.17,3062.80 2484.78,3062.14 2486.15,3061.71"/>
    </edge>
    <edge id=":10848483073_0" function="internal">
        <lane id=":10848483073_0_0" index="0" disallow="tram rail_urban rail rail_electric rail_fast ship container cable_car subway aircraft wheelchair scooter drone" speed="6.84" length="9.46" shape="2611.15,3318.74 2608.52,3319.22 2606.62,3320.34 2605.44,3322.10 2605.00,3324.52"/>
    </edge>
    <edge id=":10848483073_1" function="internal">
        <lane id=":10848483073_1_0" index="0" disallow="tram rail_urban rail rail_electric rail_fast ship container cable_car subway aircraft wheelchair scooter drone" speed="7.86" length="14.51" shape="2611.15,3318.74 2607.15,3318.37 2604.32,3316.79 2602.69,3314.00 2602.23,3310.01"/>
    </edge>
    <edge id=":10848483073_2" function="internal">
        <lane id=":10848483073_2_0" index="0" disallow="tram rail_urban rail rail_electric rail_fast ship container cable_car subway aircraft wheelchair scooter drone" speed="3.65" length="4.67" shape="2611.15,3318.74 2609.91,3318.00 2609.47,3317.22 2609.83,3316.40 2610.99,3315.54"/>
    </edge>
    <edge id=":10848483073_3" function="internal">
        <lane id=":10848483073_3_0" index="0" disallow="tram rail_urban rail rail_electric rail_fast ship container cable_car subway aircraft wheelchair scooter drone" speed="6.34" length="9.04" shape="2605.43,3310.10 2605.71,3312.59 2606.73,3314.33 2608.49,3315.31 2610.99,3315.54"/>
    </edge>
    <edge id=":10848483073_4" function="internal">
        <lane id=":10848483073_4_0" index="0" disallow="tram rail_urban rail rail_electric rail_fast ship container cable_car subway aircraft wheelchair scooter drone" speed="13.89" length="14.42" shape="2605.43,3310.10 2605.00,3324.52"/>
    </edge>
    <edge id=":10848483073_5" function="internal">
        <lane id=":10848483073_5_0" index="0" disallow="tram rail_urban rail rail_electric rail_fast ship container cable_car subway aircraft wheelchair scooter drone" speed="3.65" length="1.44" shape="2605.43,3310.10 2604.60,3311.28"/>
    </edge>
    <edge id=":10848483073_9" function="internal">
        <lane id=":10848483073_9_0" index="0" disallow="tram rail_urban rail rail_electric rail_fast ship container cable_car subway aircraft wheelchair scooter drone" speed="3.65" length="3.23" shape="2604.60,3311.28 2603.79,3311.65 2603.00,3311.23 2602.23,3310.01"/>
    </edge>
    <edge id=":10848483073_6" function="internal">
        <lane id=":10848483073_6_0" index="0" disallow="tram rail_urban rail rail_electric rail_fast ship container cable_car subway aircraft wheelchair scooter drone" speed="13.89" length="14.42" shape="2601.80,3324.42 2602.23,3310.01"/>
    </edge>
    <edge id=":10848483073_7" function="internal">
        <lane id=":10848483073_7_0" index="0" disallow="tram rail_urban rail rail_electric rail_fast ship container cable_car subway aircraft wheelchair scooter drone" speed="8.28" length="3.94" shape="2601.80,3324.42 2602.47,3320.71 2602.56,3320.57"/>
    </edge>
    <edge id=":10848483073_8" function="internal">
        <lane id=":10848483073_8_0" index="0" disallow="tram rail_urban rail rail_electric rail_fast ship container cable_car subway aircraft wheelchair scooter drone" speed="3.65" length="1.44" shape="2601.80,3324.42 2602.63,3323.25"/>
    </edge>
    <edge id=":10848483073_10" function="internal">
        <lane id=":10848483073_10_0" index="0" disallow="tram rail_urban rail rail_electric rail_fast ship container cable_car subway aircraft wheelchair scooter drone" speed="8.28" length="10.38" shape="2602.56,3320.57 2604.22,3317.99 2607.06,3316.27 2610.99,3315.54"/>
    </edge>
    <edge id=":10848483073_11" function="internal">
        <lane id=":10848483073_11_0" index="0" disallow="tram rail_urban rail rail_electric rail_fast ship container cable_car subway aircraft wheelchair scooter drone" speed="3.65" length="3.23" shape="2602.63,3323.25 2603.45,3322.87 2604.23,3323.29 2605.00,3324.52"/>
    </edge>
    <edge id=":10848483081_0" function="internal">
        <lane id=":10848483081_0_0" index="0" disallow="tram rail_urban rail rail_electric rail_fast ship container cable_car subway aircraft wheelchair scooter drone" speed="3.65" length="4.67" shape="3047.34,3266.56 3048.64,3267.20 3049.14,3267.94 3048.85,3268.78 3047.76,3269.73"/>
    </edge>
    <edge id=":10848496972_0" function="internal">
        <lane id=":10848496972_0_0" index="0" disallow="tram rail_urban rail rail_electric rail_fast ship container cable_car subway aircraft wheelchair scooter drone" speed="3.65" length="4.67" shape="2740.68,3758.34 2740.63,3756.90 2741.05,3756.11 2741.93,3755.97 2743.28,3756.48"/>
    </edge>
    <edge id=":10848496975_0" function="internal">
        <lane id=":10848496975_0_0" index="0" disallow="tram rail_urban rail rail_electric rail_fast ship container cable_car subway aircraft wheelchair scooter drone" speed="3.65" length="4.67" shape="2722.66,3713.12 2722.61,3714.56 2722.14,3715.32 2721.24,3715.40 2719.93,3714.79"/>
    </edge>
    <edge id=":10848742611_0" function="internal">
        <lane id=":10848742611_0_0" index="0" disallow="tram rail_urban rail rail_electric rail_fast ship container cable_car subway aircraft wheelchair scooter drone" speed="22.22" length="24.08" shape="2729.99,3510.56 2709.17,3522.67"/>
    </edge>
    <edge id=":10848742611_1" function="internal">
        <lane id=":10848742611_1_0" index="0" disallow="tram rail_urban rail rail_electric rail_fast ship container cable_car subway aircraft wheelchair scooter drone" speed="18.05" length="3.42" shape="2729.99,3510.56 2726.74,3511.62"/>
    </edge>
    <edge id=":10848742611_2" function="internal">
        <lane id=":10848742611_2_0" index="0" disallow="tram rail_urban rail rail_electric rail_fast ship container cable_car subway aircraft wheelchair scooter drone" speed="3.65" length="1.44" shape="2729.99,3510.56 2728.55,3510.39"/>
    </edge>
    <edge id=":10848742611_9" function="internal">
        <lane id=":10848742611_9_0" index="0" disallow="tram rail_urban rail rail_electric rail_fast ship container cable_car subway aircraft wheelchair scooter drone" speed="18.05" length="21.16" shape="2726.74,3511.62 2725.04,3512.18 2718.15,3513.59 2711.17,3514.72 2705.95,3515.46"/>
    </edge>
    <edge id=":10848742611_10" function="internal">
        <lane id=":10848742611_10_0" index="0" disallow="tram rail_urban rail rail_electric rail_fast ship container cable_car subway aircraft wheelchair scooter drone" speed="3.65" length="3.23" shape="2728.55,3510.39 2727.84,3509.85 2727.83,3508.96 2728.55,3507.70"/>
    </edge>
    <edge id=":10848742611_3" function="internal">
        <lane id=":10848742611_3_0" index="0" disallow="tram rail_urban rail rail_electric rail_fast ship container cable_car subway aircraft wheelchair scooter drone" speed="18.05" length="23.54" shape="2705.51,3512.29 2710.57,3511.60 2717.21,3510.58 2723.76,3509.27 2728.55,3507.70"/>
    </edge>
    <edge id=":10848742611_4" function="internal">
        <lane id=":10848742611_4_0" index="0" disallow="tram rail_urban rail rail_electric rail_fast ship container cable_car subway aircraft wheelchair scooter drone" speed="6.17" length="15.14" shape="2705.51,3512.29 2709.38,3513.11 2711.58,3515.98 2711.67,3519.60 2709.17,3522.67"/>
    </edge>
    <edge id=":10848742611_5" function="internal">
        <lane id=":10848742611_5_0" index="0" disallow="tram rail_urban rail rail_electric rail_fast ship container cable_car subway aircraft wheelchair scooter drone" speed="3.65" length="4.67" shape="2705.51,3512.29 2706.81,3512.92 2707.32,3513.65 2707.03,3514.50 2705.95,3515.46"/>
    </edge>
    <edge id=":10848742611_6" function="internal">
        <lane id=":10848742611_6_0" index="0" disallow="tram rail_urban rail rail_electric rail_fast ship container cable_car subway aircraft wheelchair scooter drone" speed="5.72" length="12.76" shape="2707.53,3519.92 2711.23,3517.36 2712.21,3515.76 2710.45,3515.13 2705.95,3515.46"/>
    </edge>
    <edge id=":10848742611_7" function="internal">
        <lane id=":10848742611_7_0" index="0" disallow="tram rail_urban rail rail_electric rail_fast ship container cable_car subway aircraft wheelchair scooter drone" speed="22.22" length="24.31" shape="2707.53,3519.92 2728.55,3507.70"/>
    </edge>
    <edge id=":10848742611_8" function="internal">
        <lane id=":10848742611_8_0" index="0" disallow="tram rail_urban rail rail_electric rail_fast ship container cable_car subway aircraft wheelchair scooter drone" speed="3.65" length="1.44" shape="2707.53,3519.92 2708.97,3519.99"/>
    </edge>
    <edge id=":10848742611_11" function="internal">
        <lane id=":10848742611_11_0" index="0" disallow="tram rail_urban rail rail_electric rail_fast ship container cable_car subway aircraft wheelchair scooter drone" speed="3.65" length="3.23" shape="2708.97,3519.99 2709.72,3520.47 2709.79,3521.36 2709.17,3522.67"/>
    </edge>
    <edge id=":10922076534_0" function="internal">
        <lane id=":10922076534_0_0" index="0" disallow="tram rail_urban rail rail_electric rail_fast ship container cable_car subway aircraft wheelchair scooter drone" speed="6.20" length="9.05" shape="296.95,2357.49 295.15,2355.70 293.28,2355.02 291.34,2355.45 289.32,2356.99"/>
    </edge>
    <edge id=":10922076534_1" function="internal">
        <lane id=":10922076534_1_0" index="0" disallow="tram rail_urban rail rail_electric rail_fast ship container cable_car subway aircraft wheelchair scooter drone" speed="13.89" length="13.89" shape="296.95,2357.49 294.86,2354.58 293.06,2351.73 291.51,2348.75 290.17,2345.43"/>
    </edge>
    <edge id=":10922076534_2" function="internal">
        <lane id=":10922076534_2_0" index="0" disallow="tram rail_urban rail rail_electric rail_fast ship container cable_car subway aircraft wheelchair scooter drone" speed="8.81" length="15.68" shape="296.95,2357.49 295.61,2354.15 295.60,2350.11 296.76,2346.12 298.93,2342.91"/>
    </edge>
    <edge id=":10922076534_3" function="internal">