<?xml version="1.0" encoding="UTF-8"?>

<!-- generated on 2026-03-17 23:18:56 by Eclipse SUMO netconvert Version 1.24.0
<netconvertConfiguration xmlns:xsi="http://www.w3.org/2001/XMLSchema-instance" xsi:noNamespaceSchemaLocation="http://sumo.dlr.de/xsd/netconvertConfiguration.xsd">

    <input>
        <sumo-net-file value="map.net.xml"/>
    </input>

    <output>
        <plain-output-prefix value="map_plain"/>
    </output>

    <processing>
        <geometry.min-radius.fix.railways value="false"/>
        <geometry.avoid-overlap value="false"/>
        <geometry.max-grade.fix value="false"/>
        <offset.disable-normalization value="true"/>
        <lefthand value="0"/>
    </processing>

    <junctions>
        <no-turnarounds value="true"/>
        <junctions.corner-detail value="5"/>
        <junctions.limit-turn-speed value="5.50"/>
        <rectangular-lane-cut value="0"/>
    </junctions>

    <pedestrian>
        <walkingareas value="0"/>
    </pedestrian>

</netconvertConfiguration>
-->

<connections version="1.20" xmlns:xsi="http://www.w3.org/2001/XMLSchema-instance" xsi:noNamespaceSchemaLocation="http://sumo.dlr.de/xsd/connections_file.xsd">
    <connection from="-1041350970" to="1041350970" fromLane="0" toLane="0"/>

    <connection from="-1077915956" to="-286376621#1" fromLane="0" toLane="0" keepClear="0"/>

    <connection from="-1077915957" to="-841658563#0" fromLane="0" toLane="0"/>
    <connection from="-1077915957" to="841658563#1" fromLane="0" toLane="0"/>
    <connection from="-1077915957" to="1077915957" fromLane="0" toLane="0"/>

    <connection from="-1137585465" to="-1137585466#0" fromLane="0" toLane="0"/>
    <connection from="-1137585465" to="1137585466#1" fromLane="0" toLane="0"/>
    <connection from="-1137585465" to="1137585465" fromLane="0" toLane="0"/>

    <connection from="-1137585466#0" to="-888806189#1" fromLane="0" toLane="0"/>
    <connection from="-1137585466#0" to="888806189#2" fromLane="0" toLane="0"/>
    <connection from="-1137585466#0" to="1137585466#0" fromLane="0" toLane="0"/>

    <connection from="-1137585466#1" to="1137585465" fromLane="0" toLane="0"/>
    <connection from="-1137585466#1" to="-1137585466#0" fromLane="0" toLane="0"/>
    <connection from="-1137585466#1" to="1137585466#1" fromLane="0" toLane="0"/>

    <connection from="-1145058115" to="1145058117#0" fromLane="0" toLane="0"/>

    <connection from="-1145058116" to="-1145058115" fromLane="0" toLane="0"/>

    <connection from="-1145058117#0" to="1145058115" fromLane="0" toLane="0"/>

    <connection from="-1145058117#1" to="-960733242#2" fromLane="0" toLane="0"/>
    <connection from="-1145058117#1" to="-1145058117#0" fromLane="0" toLane="0"/>
    <connection from="-1145058117#1" to="1145058117#1" fromLane="0" toLane="0"/>

    <connection from="-1166369440" to="1166369440" fromLane="0" toLane="0"/>

    <connection from="-1166369441" to="757509934#1" fromLane="0" toLane="0"/>
    <connection from="-1166369441" to="-757509934#0" fromLane="0" toLane="0"/>
    <connection from="-1166369441" to="1166369441" fromLane="0" toLane="0"/>

    <connection from="-1166376404" to="1166376404" fromLane="0" toLane="0"/>

    <connection from="-1166376405" to="-758637976" fromLane="0" toLane="0"/>
    <connection from="-1166376405" to="389935995#1" fromLane="0" toLane="0"/>
    <connection from="-1166376405" to="-389935995#0" fromLane="0" toLane="0"/>
    <connection from="-1166376405" to="1166376405" fromLane="0" toLane="0"/>

    <connection from="-1166376808" to="757509934#2" fromLane="0" toLane="0"/>
    <connection from="-1166376808" to="-757509934#1" fromLane="0" toLane="0"/>
    <connection from="-1166376808" to="1166376808" fromLane="0" toLane="0"/>

    <connection from="-1175380688" to="738434647#0" fromLane="0" toLane="0"/>
    <connection from="-1175380688" to="-389943098" fromLane="0" toLane="0"/>
    <connection from="-1175380688" to="1175380688" fromLane="0" toLane="0"/>

    <connection from="-1175380689#0" to="754481682" fromLane="0" toLane="0"/>

    <connection from="-1175380689#1" to="-389934193#7" fromLane="0" toLane="0"/>
    <connection from="-1175380689#1" to="-1175380689#0" fromLane="0" toLane="0"/>
    <connection from="-1175380689#1" to="1175380689#1" fromLane="0" toLane="0"/>

    <connection from="-1189302973" to="-389933122#5" fromLane="0" toLane="0"/>
    <connection from="-1189302973" to="389933122#6" fromLane="0" toLane="0"/>
    <connection from="-1189302973" to="1189302973" fromLane="0" toLane="0"/>

    <connection from="-1198546949" to="286375416#2" fromLane="0" toLane="0"/>
    <connection from="-1198546949" to="-286375416#1" fromLane="0" toLane="0"/>
    <connection from="-1198546949" to="1198546949" fromLane="0" toLane="0"/>

    <connection from="-1206064607#0" to="1206064607#0" fromLane="0" toLane="0"/>

    <connection from="-1206064607#1" to="-1206064607#0" fromLane="0" toLane="0"/>
    <connection from="-1206064607#1" to="-389944435" fromLane="0" toLane="0"/>
    <connection from="-1206064607#1" to="1206064607#1" fromLane="0" toLane="0"/>

    <connection from="-1206064607#2" to="-389934192#6" fromLane="0" toLane="0"/>
    <connection from="-1206064607#2" to="-1206064607#1" fromLane="0" toLane="0"/>
    <connection from="-1206064607#2" to="389934193#0" fromLane="0" toLane="0"/>
    <connection from="-1206064607#2" to="1206064607#2" fromLane="0" toLane="0"/>

    <connection from="-1206064607#3" to="-1145058116" fromLane="0" toLane="0"/>
    <connection from="-1206064607#3" to="-1206064607#2" fromLane="0" toLane="0"/>
    <connection from="-1206064607#3" to="1206064607#3" fromLane="0" toLane="0"/>

    <connection from="-1213251323#0" to="-286375416#3" fromLane="0" toLane="0"/>
    <connection from="-1213251323#0" to="286375416#4" fromLane="0" toLane="0"/>
    <connection from="-1213251323#0" to="1213251323#0" fromLane="0" toLane="0"/>

    <connection from="-1213251323#1" to="-1309998211" fromLane="0" toLane="0"/>
    <connection from="-1213251323#1" to="-1213251323#0" fromLane="0" toLane="0"/>
    <connection from="-1213251323#1" to="1213251323#1" fromLane="0" toLane="0"/>

    <connection from="-1213251323#2" to="-1213251323#1" fromLane="0" toLane="0"/>
    <connection from="-1213251323#2" to="-1378252911" fromLane="0" toLane="0"/>
    <connection from="-1213251323#2" to="1213251323#2" fromLane="0" toLane="0"/>

    <connection from="-1305856230" to="389944012#1" fromLane="0" toLane="0"/>
    <connection from="-1305856230" to="-389944012#0" fromLane="0" toLane="0"/>
    <connection from="-1305856230" to="1305856230" fromLane="0" toLane="0"/>

    <connection from="-1309998210" to="-1378252912" fromLane="0" toLane="0"/>
    <connection from="-1309998210" to="535936518#0" fromLane="0" toLane="0"/>
    <connection from="-1309998210" to="1309998210" fromLane="0" toLane="0"/>

    <connection from="-1309998211" to="965152738#1" fromLane="0" toLane="0"/>
    <connection from="-1309998211" to="-965152738#0" fromLane="0" toLane="0"/>
    <connection from="-1309998211" to="1309998211" fromLane="0" toLane="0"/>

    <connection from="-1309998212#0" to="389934192#3" fromLane="0" toLane="0"/>
    <connection from="-1309998212#0" to="-389934192#2" fromLane="0" toLane="0"/>
    <connection from="-1309998212#0" to="1309998212#0" fromLane="0" toLane="0"/>

    <connection from="-1309998212#1" to="-1309998212#0" fromLane="0" toLane="0"/>
    <connection from="-1309998212#1" to="1309998214" fromLane="0" toLane="0"/>
    <connection from="-1309998212#1" to="1309998212#1" fromLane="0" toLane="0"/>

    <connection from="-1309998212#2" to="1309998213" fromLane="0" toLane="0"/>
    <connection from="-1309998212#2" to="-1309998212#1" fromLane="0" toLane="0"/>
    <connection from="-1309998212#2" to="1309998212#2" fromLane="0" toLane="0"/>

    <connection from="-1309998213" to="-1309998212#1" fromLane="0" toLane="0"/>
    <connection from="-1309998213" to="1309998212#2" fromLane="0" toLane="0"/>
    <connection from="-1309998213" to="1309998213" fromLane="0" toLane="0"/>

    <connection from="-1309998214" to="1309998212#1" fromLane="0" toLane="0"/>
    <connection from="-1309998214" to="-1309998212#0" fromLane="0" toLane="0"/>
    <connection from="-1309998214" to="1309998214" fromLane="0" toLane="0"/>

    <connection from="-1309998215#0" to="389934192#6" fromLane="0" toLane="0"/>
    <connection from="-1309998215#0" to="-389934192#5" fromLane="0" toLane="0"/>
    <connection from="-1309998215#0" to="1309998215#0" fromLane="0" toLane="0"/>

    <connection from="-1309998215#1" to="-1309998215#0" fromLane="0" toLane="0"/>
    <connection from="-1309998215#1" to="1309998216" fromLane="0" toLane="0"/>
    <connection from="-1309998215#1" to="1309998215#1" fromLane="0" toLane="0"/>

    <connection from="-1309998216" to="1309998215#1" fromLane="0" toLane="0"/>
    <connection from="-1309998216" to="-1309998215#0" fromLane="0" toLane="0"/>
    <connection from="-1309998216" to="1309998216" fromLane="0" toLane="0"/>

    <connection from="-1309998218" to="-389934192#3" fromLane="0" toLane="0"/>
    <connection from="-1309998218" to="389934192#4" fromLane="0" toLane="0"/>
    <connection from="-1309998218" to="1309998218" fromLane="0" toLane="0"/>

    <connection from="-1378248860" to="-797563413" fromLane="0" toLane="0"/>

    <connection from="-1378248861" to="-389933122#8" fromLane="0" toLane="0"/>
    <connection from="-1378248861" to="389933122#9" fromLane="0" toLane="0"/>
    <connection from="-1378248861" to="1378248861" fromLane="0" toLane="0"/>

    <connection from="-1378248862" to="1378248862" fromLane="0" toLane="0"/>

    <connection from="-1378248863" to="-798269714#0" fromLane="0" toLane="0"/>
    <connection from="-1378248863" to="798269714#1" fromLane="0" toLane="0"/>
    <connection from="-1378248863" to="1378248863" fromLane="0" toLane="0"/>

    <connection from="-1378252899" to="535935820#4" fromLane="0" toLane="0"/>
    <connection from="-1378252899" to="-535935820#3" fromLane="0" toLane="0"/>
    <connection from="-1378252899" to="1378252899" fromLane="0" toLane="0"/>

    <connection from="-1378252900" to="535935820#5" fromLane="0" toLane="0"/>
    <connection from="-1378252900" to="-535935820#4" fromLane="0" toLane="0"/>
    <connection from="-1378252900" to="1378252900" fromLane="0" toLane="0"/>

    <connection from="-1378252901" to="535935820#3" fromLane="0" toLane="0"/>
    <connection from="-1378252901" to="-535935820#2" fromLane="0" toLane="0"/>
    <connection from="-1378252901" to="1378252901" fromLane="0" toLane="0"/>

    <connection from="-1378252902" to="535935820#1" fromLane="0" toLane="0"/>
    <connection from="-1378252902" to="-535935820#0" fromLane="0" toLane="0"/>
    <connection from="-1378252902" to="1378252902" fromLane="0" toLane="0"/>

    <connection from="-1378252903" to="286375416#9" fromLane="0" toLane="0"/>
    <connection from="-1378252903" to="-286375416#8" fromLane="0" toLane="0"/>
    <connection from="-1378252903" to="1378252903" fromLane="0" toLane="0"/>

    <connection from="-1378252904" to="-797563396#1" fromLane="0" toLane="0"/>
    <connection from="-1378252904" to="797563396#2" fromLane="0" toLane="0"/>
    <connection from="-1378252904" to="1378252904" fromLane="0" toLane="0"/>

    <connection from="-1378252911" to="1378252911" fromLane="0" toLane="0"/>

    <connection from="-1378252912" to="-286375416#6" fromLane="0" toLane="0"/>
    <connection from="-1378252912" to="286375416#7" fromLane="0" toLane="0"/>
    <connection from="-1378252912" to="1378252912" fromLane="0" toLane="0"/>

    <connection from="-1378252917" to="444400585#1" fromLane="0" toLane="0"/>
    <connection from="-1378252917" to="-444400585#0" fromLane="0" toLane="0"/>
    <connection from="-1378252917" to="1378252917" fromLane="0" toLane="0"/>

    <connection from="-1378252918#0" to="1378252918#0" fromLane="0" toLane="0"/>

    <connection from="-1378252918#1" to="-1041350970" fromLane="0" toLane="0"/>
    <connection from="-1378252918#1" to="-1378252918#0" fromLane="0" toLane="0"/>
    <connection from="-1378252918#1" to="1378252918#1" fromLane="0" toLane="0"/>

    <connection from="-1378258303" to="-535937546#1" fromLane="0" toLane="0"/>
    <connection from="-1378258303" to="535937546#2" fromLane="0" toLane="0"/>
    <connection from="-1378258303" to="1378258303" fromLane="0" toLane="0"/>

    <connection from="-1378258304" to="-797563396#0" fromLane="0" toLane="0"/>
    <connection from="-1378258304" to="797563396#1" fromLane="0" toLane="0"/>
    <connection from="-1378258304" to="1378258304" fromLane="0" toLane="0"/>

    <connection from="-148462086#0" to="389933122#7" fromLane="0" toLane="0"/>
    <connection from="-148462086#0" to="-389933122#6" fromLane="0" toLane="0"/>
    <connection from="-148462086#0" to="148462086#0" fromLane="0" toLane="0"/>

    <connection from="-148462086#1" to="797563431#0" fromLane="0" toLane="0"/>
    <connection from="-148462086#1" to="-148462086#0" fromLane="0" toLane="0"/>
    <connection from="-148462086#1" to="148462086#1" fromLane="0" toLane="0"/>

    <connection from="-148462086#2" to="-148462086#1" fromLane="0" toLane="0"/>
    <connection from="-148462086#2" to="-747995216#1" fromLane="0" toLane="0"/>
    <connection from="-148462086#2" to="148462086#2" fromLane="0" toLane="0"/>

    <connection from="-148462086#3" to="758637976" fromLane="0" toLane="0"/>
    <connection from="-148462086#3" to="-148462086#2" fromLane="0" toLane="0"/>
    <connection from="-148462086#3" to="148462086#3" fromLane="0" toLane="0"/>

    <connection from="-148462086#4" to="-389935995#1" fromLane="0" toLane="0"/>
    <connection from="-148462086#4" to="-148462086#3" fromLane="0" toLane="0"/>
    <connection from="-148462086#4" to="-757509934#2" fromLane="0" toLane="0"/>
    <connection from="-148462086#4" to="148462086#4" fromLane="0" toLane="0"/>

    <connection from="-148462086#5" to="-148462086#4" fromLane="0" toLane="0"/>
    <connection from="-148462086#5" to="-1166376808" fromLane="0" toLane="0"/>
    <connection from="-148462086#5" to="148462086#5" fromLane="0" toLane="0"/>

    <connection from="-169359641#0" to="-1175380689#1" fromLane="0" toLane="0"/>
    <connection from="-169359641#0" to="-965152743#1" fromLane="0" toLane="0"/>
    <connection from="-169359641#0" to="169359641#0" fromLane="0" toLane="0"/>

    <connection from="-169359641#1" to="748016296" fromLane="0" toLane="0"/>
    <connection from="-169359641#1" to="-169359641#0" fromLane="0" toLane="0"/>
    <connection from="-169359641#1" to="169359641#1" fromLane="0" toLane="0"/>

    <connection from="-169359641#2" to="957099373" fromLane="0" toLane="0"/>
    <connection from="-169359641#2" to="-169359641#1" fromLane="0" toLane="0"/>
    <connection from="-169359641#2" to="169359641#2" fromLane="0" toLane="0"/>

    <connection from="-169359641#3" to="-169359641#2" fromLane="0" toLane="0"/>
    <connection from="-169359641#3" to="797563396#0" fromLane="0" toLane="0"/>
    <connection from="-169359641#3" to="169359641#3" fromLane="0" toLane="0"/>

    <connection from="-286375415" to="286375415" fromLane="0" toLane="0"/>

    <connection from="-286375416#0" to="286375416#0" fromLane="0" toLane="0"/>

    <connection from="-286375416#1" to="-286375416#0" fromLane="0" toLane="0"/>
    <connection from="-286375416#1" to="286375718" fromLane="0" toLane="0"/>
    <connection from="-286375416#1" to="286375416#1" fromLane="0" toLane="0"/>

    <connection from="-286375416#2" to="-286375416#1" fromLane="0" toLane="0"/>
    <connection from="-286375416#2" to="1198546949" fromLane="0" toLane="0"/>
    <connection from="-286375416#2" to="286375416#2" fromLane="0" toLane="0"/>

    <connection from="-286375416#3" to="965152738#0" fromLane="0" toLane="0"/>
    <connection from="-286375416#3" to="-286375416#2" fromLane="0" toLane="0"/>
    <connection from="-286375416#3" to="286375416#3" fromLane="0" toLane="0"/>

    <connection from="-286375416#4" to="1213251323#0" fromLane="0" toLane="0"/>
    <connection from="-286375416#4" to="-286375416#3" fromLane="0" toLane="0"/>
    <connection from="-286375416#4" to="286375416#4" fromLane="0" toLane="0"/>

    <connection from="-286375416#5" to="-957099096" fromLane="0" toLane="0"/>
    <connection from="-286375416#5" to="-286375416#4" fromLane="0" toLane="0"/>
    <connection from="-286375416#5" to="286375416#5" fromLane="0" toLane="0"/>

    <connection from="-286375416#6" to="-286375416#5" fromLane="0" toLane="0"/>
    <connection from="-286375416#6" to="-678338592#1" fromLane="0" toLane="0"/>
    <connection from="-286375416#6" to="286375416#6" fromLane="0" toLane="0"/>

    <connection from="-286375416#7" to="1378252912" fromLane="0" toLane="0"/>
    <connection from="-286375416#7" to="-286375416#6" fromLane="0" toLane="0"/>
    <connection from="-286375416#7" to="286375416#7" fromLane="0" toLane="0"/>

    <connection from="-286375416#8" to="535935820#2" fromLane="0" toLane="0"/>
    <connection from="-286375416#8" to="-286375416#7" fromLane="0" toLane="0"/>
    <connection from="-286375416#8" to="-535935820#1" fromLane="0" toLane="0"/>
    <connection from="-286375416#8" to="286375416#8" fromLane="0" toLane="0"/>

    <connection from="-286375416#9" to="-286375416#8" fromLane="0" toLane="0"/>
    <connection from="-286375416#9" to="1378252903" fromLane="0" toLane="0"/>
    <connection from="-286375416#9" to="286375416#9" fromLane="0" toLane="0"/>

    <connection from="-286375718" to="286375416#1" fromLane="0" toLane="0"/>
    <connection from="-286375718" to="-286375416#0" fromLane="0" toLane="0"/>
    <connection from="-286375718" to="286375718" fromLane="0" toLane="0"/>

    <connection from="-286376619" to="-286376621#0" fromLane="0" toLane="0"/>
    <connection from="-286376619" to="286376621#1" fromLane="0" toLane="0"/>
    <connection from="-286376619" to="286376619" fromLane="0" toLane="0"/>

    <connection from="-286376620" to="-826933356#3" fromLane="0" toLane="0"/>
    <connection from="-286376620" to="826933356#4" fromLane="0" toLane="0"/>
    <connection from="-286376620" to="286376620" fromLane="0" toLane="0"/>

    <connection from="-286376621#0" to="286376621#0" fromLane="0" toLane="0"/>

    <connection from="-286376621#1" to="286376619" fromLane="0" toLane="0"/>
    <connection from="-286376621#1" to="-286376621#0" fromLane="0" toLane="0"/>
    <connection from="-286376621#1" to="286376621#1" fromLane="0" toLane="0"/>

    <connection from="-389933122#0" to="535935820#0" fromLane="0" toLane="0"/>
    <connection from="-389933122#0" to="-169359641#3" fromLane="0" toLane="0"/>
    <connection from="-389933122#0" to="389933122#0" fromLane="0" toLane="0"/>

    <connection from="-389933122#1" to="-389933122#0" fromLane="0" toLane="0"/>
    <connection from="-389933122#1" to="-797563396#2" fromLane="0" toLane="0"/>
    <connection from="-389933122#1" to="389933122#1" fromLane="0" toLane="0"/>

    <connection from="-389933122#10" to="-389933122#9" fromLane="0" toLane="0"/>
    <connection from="-389933122#10" to="-797563417" fromLane="0" toLane="0"/>
    <connection from="-389933122#10" to="389933122#10" fromLane="0" toLane="0"/>

    <connection from="-389933122#11" to="-389933122#10" fromLane="0" toLane="0"/>
    <connection from="-389933122#11" to="797563413" fromLane="0" toLane="0"/>
    <connection from="-389933122#11" to="389933122#11" fromLane="0" toLane="0"/>

    <connection from="-389933122#2" to="-1378252903" fromLane="0" toLane="0"/>
    <connection from="-389933122#2" to="-389933122#1" fromLane="0" toLane="0"/>
    <connection from="-389933122#2" to="389933122#2" fromLane="0" toLane="0"/>

    <connection from="-389933122#3" to="797839800" fromLane="0" toLane="0"/>
    <connection from="-389933122#3" to="-389933122#2" fromLane="0" toLane="0"/>
    <connection from="-389933122#3" to="389933122#3" fromLane="0" toLane="0"/>

    <connection from="-389933122#4" to="-389933122#3" fromLane="0" toLane="0"/>
    <connection from="-389933122#4" to="535937546#0" fromLane="0" toLane="0"/>
    <connection from="-389933122#4" to="389933122#4" fromLane="0" toLane="0"/>

    <connection from="-389933122#5" to="798269696" fromLane="0" toLane="0"/>
    <connection from="-389933122#5" to="-389933122#4" fromLane="0" toLane="0"/>
    <connection from="-389933122#5" to="389933122#5" fromLane="0" toLane="0"/>

    <connection from="-389933122#6" to="1189302973" fromLane="0" toLane="0"/>
    <connection from="-389933122#6" to="-389933122#5" fromLane="0" toLane="0"/>
    <connection from="-389933122#6" to="389933122#6" fromLane="0" toLane="0"/>

    <connection from="-389933122#7" to="-389933122#6" fromLane="0" toLane="0"/>
    <connection from="-389933122#7" to="148462086#0" fromLane="0" toLane="0"/>
    <connection from="-389933122#7" to="389933122#7" fromLane="0" toLane="0"/>

    <connection from="-389933122#8" to="957929338" fromLane="0" toLane="0"/>
    <connection from="-389933122#8" to="-389933122#7" fromLane="0" toLane="0"/>
    <connection from="-389933122#8" to="389933122#8" fromLane="0" toLane="0"/>

    <connection from="-389933122#9" to="1378248861" fromLane="0" toLane="0"/>
    <connection from="-389933122#9" to="-389933122#8" fromLane="0" toLane="0"/>
    <connection from="-389933122#9" to="389933122#9" fromLane="0" toLane="0"/>

    <connection from="-389934192#0" to="389934192#0" fromLane="0" toLane="0"/>

    <connection from="-389934192#1" to="-389934192#0" fromLane="0" toLane="0"/>
    <connection from="-389934192#1" to="-444400585#1" fromLane="0" toLane="0"/>
    <connection from="-389934192#1" to="389934192#1" fromLane="0" toLane="0"/>

    <connection from="-389934192#2" to="-678340754#1" fromLane="0" toLane="0"/>
    <connection from="-389934192#2" to="-389934192#1" fromLane="0" toLane="0"/>
    <connection from="-389934192#2" to="389934192#2" fromLane="0" toLane="0"/>

    <connection from="-389934192#3" to="-389934192#2" fromLane="0" toLane="0"/>
    <connection from="-389934192#3" to="1309998212#0" fromLane="0" toLane="0"/>
    <connection from="-389934192#3" to="389934192#3" fromLane="0" toLane="0"/>

    <connection from="-389934192#4" to="1309998218" fromLane="0" toLane="0"/>
    <connection from="-389934192#4" to="-389934192#3" fromLane="0" toLane="0"/>
    <connection from="-389934192#4" to="389934192#4" fromLane="0" toLane="0"/>

    <connection from="-389934192#5" to="960733242#2" fromLane="0" toLane="0"/>
    <connection from="-389934192#5" to="-389934192#4" fromLane="0" toLane="0"/>
    <connection from="-389934192#5" to="-960733242#1" fromLane="0" toLane="0"/>
    <connection from="-389934192#5" to="389934192#5" fromLane="0" toLane="0"/>

    <connection from="-389934192#6" to="-389934192#5" fromLane="0" toLane="0"/>
    <connection from="-389934192#6" to="1309998215#0" fromLane="0" toLane="0"/>
    <connection from="-389934192#6" to="389934192#6" fromLane="0" toLane="0"/>

    <connection from="-389934193#0" to="1206064607#2" fromLane="0" toLane="0"/>
    <connection from="-389934193#0" to="-389934192#6" fromLane="0" toLane="0"/>
    <connection from="-389934193#0" to="-1206064607#1" fromLane="0" toLane="0"/>
    <connection from="-389934193#0" to="389934193#0" fromLane="0" toLane="0"/>

    <connection from="-389934193#1" to="-389934193#0" fromLane="0" toLane="0"/>
    <connection from="-389934193#1" to="-389944434#1" fromLane="0" toLane="0"/>
    <connection from="-389934193#1" to="389934193#1" fromLane="0" toLane="0"/>

    <connection from="-389934193#2" to="-841658563#2" fromLane="0" toLane="0"/>
    <connection from="-389934193#2" to="-389934193#1" fromLane="0" toLane="0"/>
    <connection from="-389934193#2" to="389934193#2" fromLane="0" toLane="0"/>

    <connection from="-389934193#3" to="-389934193#2" fromLane="0" toLane="0"/>
    <connection from="-389934193#3" to="-389944016#3" fromLane="0" toLane="0"/>
    <connection from="-389934193#3" to="389934193#3" fromLane="0" toLane="0"/>

    <connection from="-389934193#4" to="-286376619" fromLane="0" toLane="0"/>
    <connection from="-389934193#4" to="-389934193#3" fromLane="0" toLane="0"/>
    <connection from="-389934193#4" to="389934193#4" fromLane="0" toLane="0"/>

    <connection from="-389934193#5" to="-389934193#4" fromLane="0" toLane="0"/>
    <connection from="-389934193#5" to="-1137585465" fromLane="0" toLane="0"/>
    <connection from="-389934193#5" to="389934193#5" fromLane="0" toLane="0"/>

    <connection from="-389934193#6" to="-389934193#5" fromLane="0" toLane="0"/>
    <connection from="-389934193#6" to="-389934469" fromLane="0" toLane="0"/>
    <connection from="-389934193#6" to="389934193#6" fromLane="0" toLane="0"/>

    <connection from="-389934193#7" to="-389934193#6" fromLane="0" toLane="0"/>

    <connection from="-389934469" to="-389934471" fromLane="0" toLane="0"/>

    <connection from="-389934471" to="389934471" fromLane="0" toLane="0"/>

    <connection from="-389935994#0" to="-754240703#0" fromLane="0" toLane="0"/>
    <connection from="-389935994#0" to="754240703#1" fromLane="0" toLane="0"/>
    <connection from="-389935994#0" to="389935994#0" fromLane="0" toLane="0"/>

    <connection from="-389935994#1" to="-389935994#0" fromLane="0" toLane="0"/>
    <connection from="-389935994#1" to="957927473#0" fromLane="0" toLane="0"/>
    <connection from="-389935994#1" to="389935994#1" fromLane="0" toLane="0"/>

    <connection from="-389935994#2" to="957927647" fromLane="0" toLane="0"/>
    <connection from="-389935994#2" to="-389935994#1" fromLane="0" toLane="0"/>
    <connection from="-389935994#2" to="389935994#2" fromLane="0" toLane="0"/>

    <connection from="-389935994#3" to="-747995210#6" fromLane="0" toLane="0"/>
    <connection from="-389935994#3" to="-389935994#2" fromLane="0" toLane="0"/>
    <connection from="-389935994#3" to="389935994#3" fromLane="0" toLane="0"/>

    <connection from="-389935994#4" to="747995210#0" fromLane="0" toLane="0"/>
    <connection from="-389935994#4" to="-389935994#3" fromLane="0" toLane="0"/>
    <connection from="-389935994#4" to="389935994#4" fromLane="0" toLane="0"/>

    <connection from="-389935994#5" to="-389935994#4" fromLane="0" toLane="0"/>
    <connection from="-389935994#5" to="-389937952#1" fromLane="0" toLane="0"/>
    <connection from="-389935994#5" to="389935994#5" fromLane="0" toLane="0"/>

    <connection from="-389935994#6" to="-389935994#5" fromLane="0" toLane="0"/>
    <connection from="-389935994#6" to="-747995214#2" fromLane="0" toLane="0"/>
    <connection from="-389935994#6" to="389935994#6" fromLane="0" toLane="0"/>

    <connection from="-389935994#7" to="757509933" fromLane="0" toLane="0"/>
    <connection from="-389935994#7" to="-389935994#6" fromLane="0" toLane="0"/>
    <connection from="-389935994#7" to="389935994#7" fromLane="0" toLane="0"/>

    <connection from="-389935995#0" to="389935995#0" fromLane="0" toLane="0"/>

    <connection from="-389935995#1" to="-389935995#0" fromLane="0" toLane="0"/>
    <connection from="-389935995#1" to="1166376405" fromLane="0" toLane="0"/>
    <connection from="-389935995#1" to="-758637976" fromLane="0" toLane="0"/>
    <connection from="-389935995#1" to="389935995#1" fromLane="0" toLane="0"/>

    <connection from="-389937952#0" to="-754240703#2" fromLane="0" toLane="0"/>
    <connection from="-389937952#0" to="754240703#3" fromLane="0" toLane="0"/>
    <connection from="-389937952#0" to="389937952#0" fromLane="0" toLane="0"/>

    <connection from="-389937952#1" to="-389937952#0" fromLane="0" toLane="0"/>
    <connection from="-389937952#1" to="747995213#0" fromLane="0" toLane="0"/>
    <connection from="-389937952#1" to="389937952#1" fromLane="0" toLane="0"/>

    <connection from="-389943098" to="-738434646" fromLane="0" toLane="0"/>

    <connection from="-389944011" to="389944011" fromLane="0" toLane="0"/>

    <connection from="-389944012#0" to="389944016#2" fromLane="0" toLane="0"/>
    <connection from="-389944012#0" to="-389944016#1" fromLane="0" toLane="0"/>
    <connection from="-389944012#0" to="389944012#0" fromLane="0" toLane="0"/>

    <connection from="-389944012#1" to="-389944012#0" fromLane="0" toLane="0"/>
    <connection from="-389944012#1" to="1305856230" fromLane="0" toLane="0"/>
    <connection from="-389944012#1" to="389944012#1" fromLane="0" toLane="0"/>

    <connection from="-389944013#0" to="-888806189#2" fromLane="0" toLane="0"/>
    <connection from="-389944013#0" to="-389944012#1" fromLane="0" toLane="0"/>
    <connection from="-389944013#0" to="389944013#0" fromLane="0" toLane="0"/>

    <connection from="-389944013#1" to="-389944013#0" fromLane="0" toLane="0"/>
    <connection from="-389944013#1" to="-1305856230" fromLane="0" toLane="0"/>
    <connection from="-389944013#1" to="389944013#1" fromLane="0" toLane="0"/>

    <connection from="-389944013#2" to="-389944013#1" fromLane="0" toLane="0"/>
    <connection from="-389944013#2" to="961937833" fromLane="0" toLane="0"/>
    <connection from="-389944013#2" to="389944013#2" fromLane="0" toLane="0"/>

    <connection from="-389944013#3" to="-389944013#2" fromLane="0" toLane="0"/>
    <connection from="-389944013#3" to="-961937833" fromLane="0" toLane="0"/>
    <connection from="-389944013#3" to="389944013#3" fromLane="0" toLane="0"/>

    <connection from="-389944013#4" to="-389944016#0" fromLane="0" toLane="0"/>
    <connection from="-389944013#4" to="-389944013#3" fromLane="0" toLane="0"/>
    <connection from="-389944013#4" to="389944016#1" fromLane="0" toLane="0"/>
    <connection from="-389944013#4" to="389944013#4" fromLane="0" toLane="0"/>

    <connection from="-389944016#0" to="-826932271" fromLane="0" toLane="0"/>

    <connection from="-389944016#1" to="389944013#4" fromLane="0" toLane="0"/>
    <connection from="-389944016#1" to="-389944016#0" fromLane="0" toLane="0"/>
    <connection from="-389944016#1" to="-389944013#3" fromLane="0" toLane="0"/>