<edges xmlns:xsi="http://www.w3.org/2001/XMLSchema-instance" version="1.20" xsi:noNamespaceSchemaLocation="http://sumo.dlr.de/xsd/edges_file.xsd">
    <location netOffset="-695507.62,-954431.22" convBoundary="0.00,0.00,6843.21,4603.96" origBoundary="76.768794,8.630075,76.839027,8.671871" projParameter="+proj=utm +zone=43 +ellps=WGS84 +datum=WGS84 +units=m +no_defs" />

    <edge id="-1041350970" from="6351669733" to="9587115097" priority="3" type="highway.residential" numLanes="1" speed="13.89" shape="743.18,3475.57 732.09,3423.16 727.57,3372.10 728.18,3353.24 731.61,3343.48 749.05,3312.06 771.50,3281.55" disallow="tram rail_urban rail rail_electric rail_fast ship container cable_car subway aircraft wheelchair scooter drone" />
    <edge id="-1077915956" from="9882823397" to="3930932423" priority="1" type="highway.service" numLanes="1" speed="5.56" shape="846.47,2991.72 867.95,2946.87 872.05,2941.11 868.99,2937.03 874.83,2932.36 870.94,2928.23" allow="pedestrian delivery bicycle" />
    <edge id="-1077915957" from="9882823401" to="9882823400" priority="3" type="highway.residential" numLanes="1" speed="13.89" disallow="tram rail_urban rail rail_electric rail_fast ship container cable_car subway aircraft wheelchair scooter drone" />
    <edge id="-1137585465" from="10604018862" to="10604018858" priority="3" type="highway.residential" numLanes="1" speed="13.89" shape="1006.10,2557.54 1001.03,2535.29 987.56,2512.35 953.66,2490.64 934.27,2473.22 905.80,2440.75" disallow="tram rail_urban rail rail_electric rail_fast ship container cable_car subway aircraft wheelchair scooter drone" />
    <edge id="-1137585466#0" from="10604018858" to="8263360567" priority="3" type="highway.residential" numLanes="1" speed="13.89" disallow="tram rail_urban rail rail_electric rail_fast ship container cable_car subway aircraft wheelchair scooter drone" />
    <edge id="-1137585466#1" from="10604018867" to="10604018858" priority="3" type="highway.residential" numLanes="1" speed="13.89" shape="851.67,2313.97 871.78,2337.35 900.86,2393.48 920.95,2420.24 910.50,2437.61 905.80,2440.75" disallow="tram rail_urban rail rail_electric rail_fast ship container cable_car subway aircraft wheelchair scooter drone" />
    <edge id="-1145058115" from="10657158684" to="10657158681" priority="3" type="highway.residential" numLanes="1" speed="13.89" shape="665.32,3308.05 668.21,3359.36 672.05,3379.78 673.15,3391.65" disallow="tram rail_urban rail rail_electric rail_fast ship container cable_car subway aircraft wheelchair scooter drone" />
    <edge id="-1145058116" from="10657158686" to="10657158684" priority="3" type="highway.residential" numLanes="1" speed="13.89" shape="594.38,3179.06 566.98,3261.22 574.87,3276.45 631.32,3296.62 665.32,3308.05" disallow="tram rail_urban rail rail_electric rail_fast ship container cable_car subway aircraft wheelchair scooter drone" />
    <edge id="-1145058117#0" from="10657158691" to="10657158681" priority="3" type="highway.residential" numLanes="1" speed="13.89" shape="689.16,3455.88 686.25,3445.89 676.24,3408.27 673.15,3391.65" disallow="tram rail_urban rail rail_electric rail_fast ship container cable_car subway aircraft wheelchair scooter drone" />
    <edge id="-1145058117#1" from="6351669735" to="10657158691" priority="3" type="highway.residential" numLanes="1" speed="13.89" shape="703.56,3484.05 692.07,3464.10 689.16,3455.88" disallow="tram rail_urban rail rail_electric rail_fast ship container cable_car subway aircraft wheelchair scooter drone" />
    <edge id="-1166369440" from="7046460430" to="10848483058" priority="3" type="highway.residential" numLanes="1" speed="13.89" shape="2958.77,3075.85 2933.84,3082.22 2917.89,3087.76 2897.78,3098.39 2874.07,3113.60 2850.37,3125.74 2826.14,3139.92 2804.51,3149.52 2788.05,3149.44 2770.09,3144.26 2748.04,3133.93 2689.53,3115.27 2645.90,3100.77 2586.33,3089.25 2512.39,3071.03 2485.70,3063.25" disallow="tram rail_urban rail rail_electric rail_fast ship container cable_car subway aircraft wheelchair scooter drone" />
    <edge id="-1166369441" from="10848483081" to="10848483073" priority="3" type="highway.residential" numLanes="1" speed="13.89" shape="3047.55,3268.15 3001.53,3274.26 2943.62,3283.95 2912.28,3293.78 2873.25,3305.32 2796.45,3313.17 2733.25,3316.98 2655.91,3314.85 2603.61,3317.52" disallow="tram rail_urban rail rail_electric rail_fast ship container cable_car subway aircraft wheelchair scooter drone" />
    <edge id="-1166376404" from="10848496972" to="7085530662" priority="3" type="highway.residential" numLanes="1" speed="13.89" shape="2741.98,3757.41 2757.99,3779.71 2769.59,3787.77 2790.15,3791.42 2828.68,3781.83 2859.12,3780.19 2904.74,3785.74 2952.86,3795.62 2974.39,3817.19 2997.71,3840.41 3016.10,3880.24" disallow="tram rail_urban rail rail_electric rail_fast ship container cable_car subway aircraft wheelchair scooter drone" />
    <edge id="-1166376405" from="10848496975" to="2472205521" priority="3" type="highway.residential" numLanes="1" speed="13.89" shape="2721.30,3713.95 2706.15,3689.29 2693.04,3665.64 2683.48,3644.02" disallow="tram rail_urban rail rail_electric rail_fast ship container cable_car subway aircraft wheelchair scooter drone" />
    <edge id="-1166376808" from="10848742611" to="7074302856" priority="3" type="highway.residential" numLanes="1" speed="13.89" shape="2725.22,3511.17 2703.17,3514.23 2679.76,3516.48 2666.16,3521.13 2657.36,3530.90" disallow="tram rail_urban rail rail_electric rail_fast ship container cable_car subway aircraft wheelchair scooter drone" />
    <edge id="-1175380688" from="7046454255" to="6914647486" priority="11" type="highway.secondary" numLanes="1" speed="27.78" disallow="tram rail_urban rail rail_electric rail_fast ship container cable_car subway aircraft wheelchair scooter drone" />
    <edge id="-1175380689#0" from="2900347354" to="7048480757" priority="10" type="highway.tertiary" numLanes="1" speed="22.22" shape="1213.40,2652.08 1224.83,2619.85 1256.95,2555.17 1285.58,2493.56" disallow="tram rail_urban rail rail_electric rail_fast ship container cable_car subway aircraft wheelchair scooter drone" />
    <edge id="-1175380689#1" from="6914647499" to="2900347354" priority="10" type="highway.tertiary" numLanes="1" speed="22.22" shape="1238.04,2794.58 1211.85,2734.13 1209.97,2728.70 1207.75,2722.31 1209.42,2679.57 1213.40,2652.08" disallow="tram rail_urban rail rail_electric rail_fast ship container cable_car subway aircraft wheelchair scooter drone" />
    <edge id="-1189302973" from="11043417328" to="11043417324" priority="3" type="highway.residential" numLanes="1" speed="13.89" shape="1995.06,3899.05 1989.22,3810.56 1993.81,3787.91 2001.14,3750.16 2000.20,3672.97" disallow="tram rail_urban rail rail_electric rail_fast ship container cable_car subway aircraft wheelchair scooter drone" />
    <edge id="-1198546949" from="11118212659" to="11118212658" priority="3" type="highway.residential" numLanes="1" speed="13.89" disallow="tram rail_urban rail rail_electric rail_fast ship container cable_car subway aircraft wheelchair scooter drone" />
    <edge id="-1206064607#0" from="1615612553" to="3930923397" priority="11" type="highway.secondary" numLanes="1" speed="27.78" shape="392.13,3087.43 365.92,3089.93 283.60,3103.80 271.37,3103.17 204.24,3078.46" disallow="tram rail_urban rail rail_electric rail_fast ship container cable_car subway aircraft wheelchair scooter drone" />
    <edge id="-1206064607#1" from="1615612566" to="1615612553" priority="11" type="highway.secondary" numLanes="1" speed="27.78" shape="534.57,3130.61 499.23,3111.22 392.13,3087.43" disallow="tram rail_urban rail rail_electric rail_fast ship container cable_car subway aircraft wheelchair scooter drone" />
    <edge id="-1206064607#2" from="10657158686" to="1615612566" priority="11" type="highway.secondary" numLanes="1" speed="27.78" shape="594.38,3179.06 588.80,3177.68 534.57,3130.61" disallow="tram rail_urban rail rail_electric rail_fast ship container cable_car subway aircraft wheelchair scooter drone" />
    <edge id="-1206064607#3" from="5193920719" to="10657158686" priority="11" type="highway.secondary" numLanes="1" speed="27.78" shape="695.05,3223.95 668.39,3207.09 594.38,3179.06" disallow="tram rail_urban rail rail_electric rail_fast ship container cable_car subway aircraft wheelchair scooter drone" />
    <edge id="-1213251323#0" from="12128975077" to="2900341536" priority="3" type="highway.residential" numLanes="1" speed="13.89" shape="791.04,3970.38 822.19,3958.38 884.79,3946.64 932.10,3934.35 982.97,3925.16 1020.07,3921.50" disallow="tram rail_urban rail rail_electric rail_fast ship container cable_car subway aircraft wheelchair scooter drone" />
    <edge id="-1213251323#1" from="5193073467" to="12128975077" priority="3" type="highway.residential" numLanes="1" speed="13.89" shape="705.25,3992.16 745.98,3984.95 774.48,3976.23 791.04,3970.38" disallow="tram rail_urban rail rail_electric rail_fast ship container cable_car subway aircraft wheelchair scooter drone" />
    <edge id="-1213251323#2" from="8928411973" to="5193073467" priority="3" type="highway.residential" numLanes="1" speed="13.89" disallow="tram rail_urban rail rail_electric rail_fast ship container cable_car subway aircraft wheelchair scooter drone" />
    <edge id="-1305856230" from="12094493015" to="3931030475" priority="3" type="highway.residential" numLanes="1" speed="13.89" shape="701.03,2320.43 529.76,2454.48 563.41,2509.88 616.03,2572.13 673.17,2636.08" disallow="tram rail_urban rail rail_electric rail_fast ship container cable_car subway aircraft wheelchair scooter drone" />
    <edge id="-1309998210" from="12128975044" to="12128975056" priority="3" type="highway.residential" numLanes="1" speed="13.89" shape="1146.95,4377.98 1146.89,4359.42 1141.93,4353.51 1132.33,4340.77 1128.93,4333.33 1130.89,4313.83 1146.36,4289.05 1152.38,4271.45 1158.66,4222.32 1122.49,4217.65 1119.65,4211.91 1115.73,4169.82 1126.27,4113.90 1137.03,4098.43 1154.73,4097.29 1196.71,4103.15" disallow="tram rail_urban rail rail_electric rail_fast ship container cable_car subway aircraft wheelchair scooter drone" />
    <edge id="-1309998211" from="12128975077" to="8928411981" priority="3" type="highway.residential" numLanes="1" speed="13.89" shape="791.04,3970.38 782.70,3870.58 784.22,3809.72 843.47,3801.43 854.85,3740.19 894.72,3744.47 914.32,3686.55 933.14,3673.58" disallow="tram rail_urban rail rail_electric rail_fast ship container cable_car subway aircraft wheelchair scooter drone" />
    <edge id="-1309998212#0" from="12128975078" to="3930932429" priority="3" type="highway.residential" numLanes="1" speed="13.89" disallow="tram rail_urban rail rail_electric rail_fast ship container cable_car subway aircraft wheelchair scooter drone" />
    <edge id="-1309998212#1" from="12128975081" to="12128975078" priority="3" type="highway.residential" numLanes="1" speed="13.89" disallow="tram rail_urban rail rail_electric rail_fast ship container cable_car subway aircraft wheelchair scooter drone" />
    <edge id="-1309998212#2" from="12128975080" to="12128975081" priority="3" type="highway.residential" numLanes="1" speed="13.89" shape="217.98,3659.42 229.90,3712.81 314.85,3710.01" disallow="tram rail_urban rail rail_electric rail_fast ship container cable_car subway aircraft wheelchair scooter drone" />
    <edge id="-1309998213" from="12128975082" to="12128975081" priority="3" type="highway.residential" numLanes="1" speed="13.89" disallow="tram rail_urban rail rail_electric rail_fast ship container cable_car subway aircraft wheelchair scooter drone" />
    <edge id="-1309998214" from="12128975085" to="12128975078" priority="3" type="highway.residential" numLanes="1" speed="13.89" shape="296.86,3778.30 370.30,3811.33 383.19,3781.56 380.99,3707.83" disallow="tram rail_urban rail rail_electric rail_fast ship container cable_car subway aircraft wheelchair scooter drone" />
    <edge id="-1309998215#0" from="12128975088" to="12128975086" priority="3" type="highway.residential" numLanes="1" speed="13.89" shape="282.92,3368.18 425.02,3264.82 483.74,3281.88" disallow="tram rail_urban rail rail_electric rail_fast ship container cable_car subway aircraft wheelchair scooter drone" />
    <edge id="-1309998215#1" from="12128975095" to="12128975088" priority="3" type="highway.residential" numLanes="1" speed="13.89" shape="33.31,3486.15 35.62,3458.13 56.33,3437.74 88.95,3424.95 124.23,3421.35 157.92,3408.80 241.57,3392.24 282.92,3368.18" disallow="tram rail_urban rail rail_electric rail_fast ship container cable_car subway aircraft wheelchair scooter drone" />
    <edge id="-1309998216" from="12128975097" to="12128975088" priority="3" type="highway.residential" numLanes="1" speed="13.89" shape="296.88,3501.23 296.21,3427.00 282.92,3368.18" disallow="tram rail_urban rail rail_electric rail_fast ship container cable_car subway aircraft wheelchair scooter drone" />
    <edge id="-1309998218" from="6351669746" to="3930932427" priority="3" type="highway.residential" numLanes="1" speed="13.89" shape="683.89,3621.33 676.72,3607.20 609.96,3622.36 603.51,3601.28 541.78,3605.02 540.44,3626.37 504.89,3631.78 433.28,3612.52" disallow="tram rail_urban rail rail_electric rail_fast ship container cable_car subway aircraft wheelchair scooter drone" />
    <edge id="-1378248860" from="7459304183" to="12761607989" priority="3" type="highway.residential" numLanes="1" speed="13.89" disallow="tram rail_urban rail rail_electric rail_fast ship container cable_car subway aircraft wheelchair scooter drone" />
    <edge id="-1378248861" from="8863680460" to="8863680459" priority="3" type="highway.residential" numLanes="1" speed="13.89" disallow="tram rail_urban rail rail_electric rail_fast ship container cable_car subway aircraft wheelchair scooter drone" />
    <edge id="-1378248862" from="5193084429" to="5193084426" priority="3" type="highway.residential" numLanes="1" speed="13.89" shape="1976.96,4034.34 1988.12,4062.51 1981.93,4097.33 1976.02,4120.74 1974.42,4175.37" disallow="tram rail_urban rail rail_electric rail_fast ship container cable_car subway aircraft wheelchair scooter drone" />
    <edge id="-1378248863" from="12761627211" to="7466196094" priority="3" type="highway.residential" numLanes="1" speed="13.89" shape="1829.00,4150.68 1827.96,4073.36 1830.31,4063.37 1833.82,4060.38 1845.58,4059.97 1865.18,4059.63 1869.03,4056.44 1870.60,4051.90 1871.55,4043.70 1872.24,4028.71 1875.03,4015.09 1880.79,4004.14 1888.37,3992.55 1892.54,3981.62 1902.40,3966.04" disallow="tram rail_urban rail rail_electric rail_fast ship container cable_car subway aircraft wheelchair scooter drone" />
    <edge id="-1378252899" from="12761653619" to="12761653615" priority="3" type="highway.residential" numLanes="2" speed="13.89" shape="1523.23,4065.87 1497.84,4070.08 1478.22,4072.20 1444.82,4072.48 1378.38,4082.66" disallow="tram rail_urban rail rail_electric rail_fast ship container cable_car subway aircraft wheelchair scooter drone" />
    <edge id="-1378252900" from="12761653622" to="12761653620" priority="3" type="highway.residential" numLanes="1" speed="13.89" shape="1517.62,4115.90 1464.27,4124.66 1386.31,4132.52" disallow="tram rail_urban rail rail_electric rail_fast ship container cable_car subway aircraft wheelchair scooter drone" />
    <edge id="-1378252901" from="12761653623" to="5193073222" priority="3" type="highway.residential" numLanes="1" speed="13.89" disallow="tram rail_urban rail rail_electric rail_fast ship container cable_car subway aircraft wheelchair scooter drone" />
    <edge id="-1378252902" from="12761653624" to="5193072415" priority="3" type="highway.residential" numLanes="1" speed="13.89" disallow="tram rail_urban rail rail_electric rail_fast ship container cable_car subway aircraft wheelchair scooter drone" />
    <edge id="-1378252903" from="12761653641" to="5193073562" priority="3" type="highway.residential" numLanes="1" speed="13.89" shape="1537.02,3585.99 1535.13,3627.97 1532.71,3634.49 1527.67,3635.62 1512.87,3634.09 1503.94,3635.17 1500.07,3638.98 1497.24,3649.32 1492.51,3752.84 1494.80,3756.19 1499.37,3758.13 1508.16,3758.93 1526.30,3761.16 1529.08,3765.50 1530.75,3770.78 1532.90,3861.28 1529.65,3892.20 1513.97,3946.34" disallow="tram rail_urban rail rail_electric rail_fast ship container cable_car subway aircraft wheelchair scooter drone" />
    <edge id="-1378252904" from="12761653642" to="7459306920" priority="3" type="highway.residential" numLanes="1" speed="13.89" disallow="tram rail_urban rail rail_electric rail_fast ship container cable_car subway aircraft wheelchair scooter drone" />
    <edge id="-1378252911" from="5193073467" to="12761653672" priority="3" type="highway.residential" numLanes="1" speed="13.89" shape="705.25,3992.16 705.58,4003.34 704.61,4039.02 707.97,4061.58 715.07,4113.36 714.50,4146.71 715.93,4152.21 722.92,4156.03 760.49,4164.34 763.17,4168.00 762.58,4181.58 759.18,4199.91 753.60,4201.07 743.41,4201.11" disallow="tram rail_urban rail rail_electric rail_fast ship container cable_car subway aircraft wheelchair scooter drone" />
    <edge id="-1378252912" from="12128975056" to="5193073557" priority="3" type="highway.residential" numLanes="1" speed="13.89" disallow="tram rail_urban rail rail_electric rail_fast ship container cable_car subway aircraft wheelchair scooter drone" />
    <edge id="-1378252917" from="12761660823" to="4418800931" priority="3" type="highway.residential" numLanes="1" speed="13.89" shape="341.52,4153.43 380.12,4138.67 390.70,4133.36 398.58,4123.66 409.03,4116.01 477.62,4094.63" disallow="tram rail_urban rail rail_electric rail_fast ship container cable_car subway aircraft wheelchair scooter drone" />
    <edge id="-1378252918#0" from="6351669733" to="6351669731" priority="3" type="highway.residential" numLanes="1" speed="13.89" shape="743.18,3475.57 773.53,3468.55 790.87,3465.80 814.98,3461.98" disallow="tram rail_urban rail rail_electric rail_fast ship container cable_car subway aircraft wheelchair scooter drone" />
    <edge id="-1378252918#1" from="6351669735" to="6351669733" priority="3" type="highway.residential" numLanes="1" speed="13.89" disallow="tram rail_urban rail rail_electric rail_fast ship container cable_car subway aircraft wheelchair scooter drone" />
    <edge id="-1378258303" from="12761716427" to="12761716418" priority="3" type="highway.residential" numLanes="1" speed="13.89" shape="1734.88,3131.77 1651.87,3109.65 1644.11,3111.75 1640.45,3117.85 1639.33,3124.44 1640.78,3145.64 1639.61,3155.02 1633.58,3160.50 1623.02,3164.90 1554.27,3197.33" disallow="tram rail_urban rail rail_electric rail_fast ship container cable_car subway aircraft wheelchair scooter drone" />
    <edge id="-1378258304" from="12761716429" to="12761716428" priority="3" type="highway.residential" numLanes="1" speed="13.89" disallow="tram rail_urban rail rail_electric rail_fast ship container cable_car subway aircraft wheelchair scooter drone" />
    <edge id="-148462086#0" from="7459304180" to="1615612653" priority="10" type="highway.tertiary" numLanes="1" speed="22.22" shape="2227.57,3644.83 2225.82,3643.92 2219.71,3640.76 2199.23,3640.21 2162.98,3648.56 2123.23,3662.62 2079.96,3674.77" disallow="tram rail_urban rail rail_electric rail_fast ship container cable_car subway aircraft wheelchair scooter drone" />
    <edge id="-148462086#1" from="6998164219" to="7459304180" priority="10" type="highway.tertiary" numLanes="1" speed="22.22" disallow="tram rail_urban rail rail_electric rail_fast ship container cable_car subway aircraft wheelchair scooter drone" />
    <edge id="-148462086#2" from="7085530681" to="6998164219" priority="10" type="highway.tertiary" numLanes="1" speed="22.22" shape="2507.83,3635.76 2466.88,3649.87 2383.62,3654.14 2369.89,3654.30 2248.24,3652.88 2234.38,3648.36" disallow="tram rail_urban rail rail_electric rail_fast ship container cable_car subway aircraft wheelchair scooter drone" />
    <edge id="-148462086#3" from="2472205500" to="7085530681" priority="10" type="highway.tertiary" numLanes="1" speed="22.22" shape="2656.55,3552.39 2575.44,3593.95 2507.83,3635.76" disallow="tram rail_urban rail rail_electric rail_fast ship container cable_car subway aircraft wheelchair scooter drone" />
    <edge id="-148462086#4" from="10848742611" to="2472205500" priority="10" type="highway.tertiary" numLanes="1" speed="22.22" disallow="tram rail_urban rail rail_electric rail_fast ship container cable_car subway aircraft wheelchair scooter drone" />
    <edge id="-148462086#5" from="1615612665" to="10848742611" priority="10" type="highway.tertiary" numLanes="1" speed="22.22" shape="6843.21,3849.36 6827.99,3844.27 6801.41,3835.38 6784.58,3824.68 6771.44,3813.45 6760.12,3795.08 6748.81,3772.63 6737.13,3744.37 6727.19,3732.53 6715.39,3721.03 6667.47,3680.71 6661.37,3672.36 6656.88,3661.75 6651.74,3633.02 6651.01,3628.92 6646.20,3608.59 6639.49,3582.88 6632.66,3567.88 6624.83,3553.75 6612.92,3541.51 6599.93,3531.34 6543.72,3498.22 6510.84,3478.85 6500.64,3470.59 6491.64,3460.58 6481.75,3444.99 6448.61,3356.16 6438.96,3337.64 6424.39,3321.18 6414.91,3313.46 6403.74,3307.41 6381.77,3298.48 6349.65,3289.50 6277.64,3271.48 6259.04,3264.20 6230.05,3249.21 6192.73,3224.85 6179.17,3215.71 6165.62,3204.24 6142.83,3179.92 6106.05,3137.79 6097.89,3123.57 6059.10,3061.75 6042.65,3035.54 6025.44,3003.75 6015.81,2972.19 6009.13,2937.14 6004.23,2909.85 5998.97,2895.45 5992.18,2883.00 5980.81,2873.79 5959.16,2862.76 5930.50,2852.47 5871.92,2831.71 5862.32,2826.43 5856.39,2821.12 5850.48,2813.77 5837.07,2791.66 5829.35,2784.57 5825.96,2781.47 5819.08,2776.39 5799.24,2761.74 5761.95,2754.30 5734.37,2755.70 5708.10,2761.54 5661.71,2774.33 5652.75,2776.80 5647.92,2778.12 5612.56,2789.70 5586.57,2795.90 5563.95,2798.91 5543.84,2801.40 5516.52,2803.98 5480.68,2808.31 5471.06,2810.61 5419.93,2826.76 5393.63,2839.26 5374.25,2851.75 5341.72,2876.12 5321.89,2890.98 5296.31,2903.45 5272.77,2911.84 5263.36,2914.14 5250.61,2915.66 5225.70,2916.10 5212.62,2915.90 5195.59,2920.01 5185.75,2926.16 5170.46,2944.04 5156.56,2960.52 5137.75,2979.50 5119.18,2994.29 5099.95,3011.64 5052.74,3088.32 5035.20,3109.85 4996.87,3152.69 4954.62,3188.20 4948.05,3193.76 4926.71,3211.89 4916.04,3215.87 4905.58,3214.05 4871.24,3193.53 4847.85,3183.50 4831.85,3180.11 4822.24,3182.04 4736.42,3214.40 4637.38,3259.16 4570.60,3291.03 4529.97,3306.90 4509.90,3311.30 4481.73,3313.52 4451.94,3313.18 4405.89,3309.95 4369.32,3308.00 4319.67,3305.67 4302.69,3304.55 4284.84,3307.48 4212.20,3319.50 4153.95,3332.25 4080.57,3346.13 4040.15,3358.27 4025.88,3362.56 4006.63,3371.11 3949.37,3405.68 3914.23,3427.74 3907.36,3431.75 3865.24,3460.99 3851.72,3470.16 3793.00,3517.29 3746.36,3554.73 3728.26,3569.26 3688.58,3595.59 3674.82,3598.88 3663.66,3598.61 3649.52,3596.26 3622.19,3583.80 3606.55,3568.55 3585.90,3539.35 3547.34,3488.88 3508.92,3455.70 3487.56,3437.25 3377.01,3359.78 3340.07,3336.58 3288.66,3313.37 3264.01,3304.23 3210.95,3287.35 3158.39,3280.83 3099.60,3286.94 3062.08,3303.72 3019.45,3328.39 2981.30,3345.95 2924.20,3372.70 2890.87,3387.85 2878.81,3394.43 2873.63,3406.03 2865.63,3461.36 2863.58,3470.35 2854.60,3475.79 2767.50,3489.89 2725.22,3511.17" disallow="tram rail_urban rail rail_electric rail_fast ship container cable_car subway aircraft wheelchair scooter drone" />
    <edge id="-169359641#0" from="6998185026" to="6914647499" priority="11" type="highway.secondary" numLanes="1" speed="27.78" shape="1305.23,3007.68 1288.17,2942.24 1264.51,2871.75 1238.04,2794.58" disallow="tram rail_urban rail rail_electric rail_fast ship container cable_car subway aircraft wheelchair scooter drone" />
    <edge id="-169359641#1" from="8856542349" to="6998185026" priority="11" type="highway.secondary" numLanes="1" speed="27.78" shape="1323.09,3080.97 1314.27,3042.37 1305.23,3007.68" disallow="tram rail_urban rail rail_electric rail_fast ship container cable_car subway aircraft wheelchair scooter drone" />
    <edge id="-169359641#2" from="7459306939" to="8856542349" priority="11" type="highway.secondary" numLanes="1" speed="27.78" shape="1298.79,3288.69 1316.55,3194.15 1323.92,3148.39 1325.77,3092.70 1323.09,3080.97" disallow="tram rail_urban rail rail_electric rail_fast ship container cable_car subway aircraft wheelchair scooter drone" />
    <edge id="-169359641#3" from="1615612617" to="7459306939" priority="11" type="highway.secondary" numLanes="1" speed="27.78" shape="1271.71,3530.51 1279.32,3379.73 1292.34,3323.00 1298.79,3288.69" disallow="tram rail_urban rail rail_electric rail_fast ship container cable_car subway aircraft wheelchair scooter drone" />
    <edge id="-286375415" from="2900337190" to="2900337191" priority="1" type="highway.service" numLanes="1" speed="8.33" allow="pedestrian delivery bicycle" />
    <edge id="-286375416#0" from="2900338498" to="3930932418" priority="3" type="highway.residential" numLanes="1" speed="13.89" shape="946.39,3430.65 910.36,3439.74 835.82,3458.56" disallow="tram rail_urban rail rail_electric rail_fast ship container cable_car subway aircraft wheelchair scooter drone" />
    <edge id="-286375416#1" from="11118212658" to="2900338498" priority="3" type="highway.residential" numLanes="1" speed="13.89" shape="1058.47,3588.97 1052.11,3543.26 1079.26,3482.38 982.09,3429.43 973.24,3426.45 964.09,3427.28 946.39,3430.65" disallow="tram rail_urban rail rail_electric rail_fast ship container cable_car subway aircraft wheelchair scooter drone" />
    <edge id="-286375416#2" from="8928411976" to="11118212658" priority="3" type="highway.residential" numLanes="1" speed="13.89" shape="1045.54,3691.85 1056.14,3631.47 1059.20,3594.21 1058.47,3588.97" disallow="tram rail_urban rail rail_electric rail_fast ship container cable_car subway aircraft wheelchair scooter drone" />
    <edge id="-286375416#3" from="2900341536" to="8928411976" priority="3" type="highway.residential" numLanes="1" speed="13.89" shape="1020.07,3921.50 1020.70,3880.40 1025.44,3816.49 1032.35,3766.97 1045.54,3691.85" disallow="tram rail_urban rail rail_electric rail_fast ship container cable_car subway aircraft wheelchair scooter drone" />
    <edge id="-286375416#4" from="8856554664" to="2900341536" priority="3" type="highway.residential" numLanes="1" speed="13.89" disallow="tram rail_urban rail rail_electric rail_fast ship container cable_car subway aircraft wheelchair scooter drone" />
    <edge id="-286375416#5" from="5193073556" to="8856554664" priority="3" type="highway.residential" numLanes="1" speed="13.89" shape="1128.89,3926.69 1075.32,3921.74 1032.39,3920.46" disallow="tram rail_urban rail rail_electric rail_fast ship container cable_car subway aircraft wheelchair scooter drone" />
    <edge id="-286375416#6" from="5193073557" to="5193073556" priority="3" type="highway.residential" numLanes="1" speed="13.89" disallow="tram rail_urban rail rail_electric rail_fast ship container cable_car subway aircraft wheelchair scooter drone" />
    <edge id="-286375416#7" from="5193073221" to="5193073557" priority="3" type="highway.residential" numLanes="1" speed="13.89" shape="1360.57,3942.09 1300.05,3939.71 1250.41,3934.78 1188.68,3933.04" disallow="tram rail_urban rail rail_electric rail_fast ship container cable_car subway aircraft wheelchair scooter drone" />
    <edge id="-286375416#8" from="5193073562" to="5193073221" priority="3" type="highway.residential" numLanes="1" speed="13.89" shape="1513.97,3946.34 1443.85,3939.14 1387.09,3938.71 1360.57,3942.09" disallow="tram rail_urban rail rail_electric rail_fast ship container cable_car subway aircraft wheelchair scooter drone" />
    <edge id="-286375416#9" from="12761653614" to="5193073562" priority="3" type="highway.residential" numLanes="1" speed="13.89" shape="1572.40,4105.33 1612.61,4102.20 1613.79,4061.61 1612.07,3959.83 1608.79,3956.21 1598.90,3953.42 1551.17,3947.00 1513.97,3946.34" disallow="tram rail_urban rail rail_electric rail_fast ship container cable_car subway aircraft wheelchair scooter drone" />
    <edge id="-286375718" from="2900338497" to="2900338498" priority="3" type="highway.residential" numLanes="1" speed="13.89" disallow="tram rail_urban rail rail_electric rail_fast ship container cable_car subway aircraft wheelchair scooter drone" />
    <edge id="-286376619" from="2900347359" to="2900347342" priority="3" type="highway.residential" numLanes="1" speed="13.89" disallow="tram rail_urban rail rail_electric rail_fast ship container cable_car subway aircraft wheelchair scooter drone" />
    <edge id="-286376620" from="7051210952" to="2900347358" priority="3" type="highway.residential" numLanes="1" speed="13.89" shape="1204.93,2450.60 1209.74,2442.82 1248.93,2359.33" disallow="tram rail_urban rail rail_electric rail_fast ship container cable_car subway aircraft wheelchair scooter drone" />
    <edge id="-286376621#0" from="2900347342" to="2900347357" priority="3" type="highway.residential" numLanes="1" speed="13.89" shape="939.59,2874.06 966.88,2872.11 1003.50,2870.52 1022.54,2871.19 1041.58,2871.87 1120.18,2877.50" disallow="tram rail_urban rail rail_electric rail_fast ship container cable_car subway aircraft wheelchair scooter drone" />
    <edge id="-286376621#1" from="3930932423" to="2900347342" priority="3" type="highway.residential" numLanes="1" speed="13.89" disallow="tram rail_urban rail rail_electric rail_fast ship container cable_car subway aircraft wheelchair scooter drone" />
    <edge id="-389933122#0" from="7459306802" to="1615612617" priority="11" type="highway.secondary" numLanes="1" speed="27.78" disallow="tram rail_urban rail rail_electric rail_fast ship container cable_car subway aircraft wheelchair scooter drone" />
    <edge id="-389933122#1" from="12761653641" to="7459306802" priority="11" type="highway.secondary" numLanes="1" speed="27.78" shape="1537.02,3585.99 1533.11,3585.18 1515.05,3581.41" disallow="tram rail_urban rail rail_electric rail_fast ship container cable_car subway aircraft wheelchair scooter drone" />