<?xml version="1.0" encoding="UTF-8"?>

<!-- generated on 2026-03-17 23:18:56 by Eclipse SUMO netconvert Version 1.24.0
-->

<netconvertConfiguration xmlns:xsi="http://www.w3.org/2001/XMLSchema-instance" xsi:noNamespaceSchemaLocation="http://sumo.dlr.de/xsd/netconvertConfiguration.xsd">

    <input>
        <node-files value="map_plain.nod.xml"/>
        <edge-files value="map_plain.edg.xml"/>
        <connection-files value="map_plain.con.xml"/>
        <tllogic-files value="map_plain.tll.xml"/>
        <type-files value="map_plain.typ.xml"/>
    </input>

    <processing>
        <geometry.min-radius.fix.railways value="false"/>
        <geometry.avoid-overlap value="false"/>
        <geometry.max-grade.fix value="false"/>
        <offset.disable-normalization value="true"/>
        <lefthand value="0"/>
    </processing>

    <junctions>
        <no-turnarounds value="true"/>
        <junctions.corner-detail value="5"/>
        <junctions.limit-turn-speed value="5.50"/>
        <rectangular-lane-cut value="0"/>
    </junctions>

    <pedestrian>
        <walkingareas value="0"/>
    </pedestrian>

</netconvertConfiguration>
