<routes>
    <vType id="car" accel="2.6" decel="4.5" sigma="0.5" length="5" maxSpeed="50"/>
    <trip id="veh0" type="car" depart="0.0" from="-1175380689#0" to="-797839822"/>
    <trip id="veh1" type="car" depart="0.5" from="-535935820#2" to="389944259#4"/>
    <trip id="veh2" type="car" depart="1.0" from="747995217#2" to="-965152738#1"/>
    <trip id="veh3" type="car" depart="1.5" from="-1041350970" to="-980875385"/>
    <trip id="veh4" type="car" depart="2.0" from="-389935994#6" to="957927680"/>
    <trip id="veh5" type="car" depart="2.5" from="-1378248860" to="-1309998212#2"/>
    <trip id="veh6" type="car" depart="3.0" from="-747995216#1" to="678343421"/>
    <trip id="veh7" type="car" depart="3.5" from="148462086#0" to="-286375718"/>
    <trip id="veh8" type="car" depart="4.0" from="-286376619" to="-960732608"/>
    <trip id="veh9" type="car" depart="4.5" from="678340754#0" to="-965152744"/>
    <trip id="veh10" type="car" depart="5.0" from="957927982" to="-747995214#0"/>
    <trip id="veh11" type="car" depart="5.5" from="535935820#1" to="-444400585#0"/>
    <trip id="veh12" type="car" depart="6.0" from="1378258303" to="-389944013#3"/>
    <trip id="veh13" type="car" depart="6.5" from="957927849" to="927742829#1"/>
    <trip id="veh14" type="car" depart="7.0" from="-1378252918#1" to="747995215#0"/>
    <trip id="veh15" type="car" depart="7.5" from="-957099096" to="1309998210"/>
    <trip id="veh16" type="car" depart="8.0" from="826933356#4" to="748016296"/>
    <trip id="veh17" type="car" depart="8.5" from="927749447" to="-286376621#0"/>
    <trip id="veh18" type="car" depart="9.0" from="389933122#3" to="-535936518#0"/>
    <trip id="veh19" type="car" depart="9.5" from="747995215#1" to="-286375718"/>
    <trip id="veh20" type="car" depart="10.0" from="-678343091" to="-957927495"/>
    <trip id="veh21" type="car" depart="10.5" from="-389935994#4" to="1213251323#2"/>
    <trip id="veh22" type="car" depart="11.0" from="-1175380689#1" to="-389944013#4"/>
    <trip id="veh23" type="car" depart="11.5" from="-957099727" to="1309998214"/>
    <trip id="veh24" type="car" depart="12.0" from="-960733242#1" to="960732367"/>
    <trip id="veh25" type="car" depart="12.5" from="-286375416#2" to="-754481683#3"/>
    <trip id="veh26" type="car" depart="13.0" from="-747995214#2" to="-957927680"/>
    <trip id="veh27" type="car" depart="13.5" from="1206064607#0" to="-747995216#0"/>
    <trip id="veh28" type="car" depart="14.0" from="-389944260" to="-1378258304"/>
    <trip id="veh29" type="car" depart="14.5" from="-1166376404" to="-389934192#5"/>
    <trip id="veh30" type="car" depart="15.0" from="927742960" to="-927749447"/>
    <trip id="veh31" type="car" depart="15.5" from="747995216#1" to="389934192#3"/>
    <trip id="veh32" type="car" depart="16.0" from="-389944013#3" to="-1309998213"/>
    <trip id="veh33" type="car" depart="16.5" from="747995210#3" to="-389944016#3"/>
    <trip id="veh34" type="car" depart="17.0" from="-754240703#3" to="-747995210#1"/>
    <trip id="veh35" type="car" depart="17.5" from="389934193#2" to="-960733242#1"/>
    <trip id="veh36" type="car" depart="18.0" from="-389934193#0" to="536069245#1"/>
    <trip id="veh37" type="car" depart="18.5" from="-389933122#4" to="-535935820#4"/>
    <trip id="veh38" type="car" depart="19.0" from="-957099096" to="738434647#0"/>
    <trip id="veh39" type="car" depart="19.5" from="389944016#1" to="825130075#2"/>
    <trip id="veh40" type="car" depart="20.0" from="389944011" to="-754240703#0"/>
    <trip id="veh41" type="car" depart="20.5" from="-1309998218" to="-797563396#0"/>
    <trip id="veh42" type="car" depart="21.0" from="927749211#0" to="389944013#0"/>
    <trip id="veh43" type="car" depart="21.5" from="-1077915957" to="389944016#2"/>
    <trip id="veh44" type="car" depart="22.0" from="747995215#0" to="-747995215#3"/>
    <trip id="veh45" type="car" depart="22.5" from="754481683#2" to="-957927495"/>
    <trip id="veh46" type="car" depart="23.0" from="-1166376808" to="-535937546#2"/>
    <trip id="veh47" type="car" depart="23.5" from="535935820#2" to="756206420"/>
    <trip id="veh48" type="car" depart="24.0" from="-389944259#3" to="1378252904"/>
    <trip id="veh49" type="car" depart="24.5" from="-888806189#1" to="-754240703#4"/>
    <trip id="veh50" type="car" depart="25.0" from="1305856230" to="-825130075#2"/>
    <trip id="veh51" type="car" depart="25.5" from="169359641#1" to="927742960"/>
    <trip id="veh52" type="car" depart="26.0" from="-536069245#0" to="536069031#0"/>
    <trip id="veh53" type="car" depart="26.5" from="389934193#1" to="-389933122#4"/>
    <trip id="veh54" type="car" depart="27.0" from="747995214#1" to="-535935820#5"/>
    <trip id="veh55" type="car" depart="27.5" from="-980875385" to="535935820#1"/>
    <trip id="veh56" type="car" depart="28.0" from="-797563396#0" to="-754481683#1"/>
    <trip id="veh57" type="car" depart="28.5" from="754481683#1" to="-1137585466#1"/>
    <trip id="veh58" type="car" depart="29.0" from="286375416#5" to="1175380689#1"/>
    <trip id="veh59" type="car" depart="29.5" from="-965152743#0" to="-1378252903"/>
    <trip id="veh60" type="car" depart="30.0" from="-957099727" to="797563431#1"/>
    <trip id="veh61" type="car" depart="30.5" from="757509934#2" to="-754240703#4"/>
    <trip id="veh62" type="car" depart="31.0" from="-1145058117#0" to="-389944016#1"/>
    <trip id="veh63" type="car" depart="31.5" from="389944016#2" to="747995217#1"/>
    <trip id="veh64" type="car" depart="32.0" from="747995210#1" to="965152757"/>
    <trip id="veh65" type="car" depart="32.5" from="1378248863" to="389937952#1"/>
    <trip id="veh66" type="car" depart="33.0" from="747995210#5" to="-678343424#0"/>
    <trip id="veh67" type="car" depart="33.5" from="-825130075#1" to="-927754422"/>
    <trip id="veh68" type="car" depart="34.0" from="678343424#0" to="738434647#1"/>
    <trip id="veh69" type="car" depart="34.5" from="-389944434#0" to="-286375718"/>
    <trip id="veh70" type="car" depart="35.0" from="1206064607#3" to="-389934193#5"/>
    <trip id="veh71" type="car" depart="35.5" from="-1378252918#1" to="-1309998212#2"/>
    <trip id="veh72" type="car" depart="36.0" from="389934193#1" to="-678343424#0"/>
    <trip id="veh73" type="car" depart="36.5" from="-747995216#1" to="286375416#5"/>
    <trip id="veh74" type="car" depart="37.0" from="-965152758" to="389933122#6"/>
    <trip id="veh75" type="car" depart="37.5" from="286375718" to="-965152758"/>
    <trip id="veh76" type="car" depart="38.0" from="-389933122#5" to="-747995217#1"/>
    <trip id="veh77" type="car" depart="38.5" from="-389934471" to="-747995210#1"/>
    <trip id="veh78" type="car" depart="39.0" from="-1378252903" to="1378252918#1"/>
    <trip id="veh79" type="car" depart="39.5" from="389934469" to="747995210#1"/>
    <trip id="veh80" type="car" depart="40.0" from="895435633" to="-389935994#6"/>
    <trip id="veh81" type="car" depart="40.5" from="-536069245#0" to="389933122#1"/>
    <trip id="veh82" type="car" depart="41.0" from="-747995210#1" to="-888806189#1"/>
    <trip id="veh83" type="car" depart="41.5" from="754240703#1" to="535937546#2"/>
    <trip id="veh84" type="car" depart="42.0" from="-797563396#2" to="927744411"/>
    <trip id="veh85" type="car" depart="42.5" from="169359641#3" to="-888806189#2"/>
    <trip id="veh86" type="car" depart="43.0" from="-389944259#1" to="-798269696"/>
    <trip id="veh87" type="car" depart="43.5" from="1189302973" to="-389933122#5"/>
    <trip id="veh88" type="car" depart="44.0" from="-389934193#5" to="747995210#0"/>
    <trip id="veh89" type="car" depart="44.5" from="754481684#1" to="-1309998213"/>
    <trip id="veh90" type="car" depart="45.0" from="-389934192#5" to="-965152738#1"/>
    <trip id="veh91" type="car" depart="45.5" from="536069245#1" to="-957929338"/>
    <trip id="veh92" type="car" depart="46.0" from="389944259#1" to="-747995210#5"/>
    <trip id="veh93" type="car" depart="46.5" from="389934193#1" to="-389944434#0"/>
    <trip id="veh94" type="car" depart="47.0" from="678343091" to="957927647"/>
    <trip id="veh95" type="car" depart="47.5" from="286375416#2" to="-748016296"/>
    <trip id="veh96" type="car" depart="48.0" from="-757509934#2" to="754481684#1"/>
    <trip id="veh97" type="car" depart="48.5" from="389944016#1" to="678343421"/>
    <trip id="veh98" type="car" depart="49.0" from="754240703#2" to="-1378252900"/>
    <trip id="veh99" type="car" depart="49.5" from="-1206064607#0" to="-389934193#6"/>
    <trip id="veh100" type="car" depart="50.0" from="-957099096" to="-1378252911"/>
    <trip id="veh101" type="car" depart="50.5" from="-389944013#1" to="535935820#4"/>
    <trip id="veh102" type="car" depart="51.0" from="389935994#3" to="957928613"/>
    <trip id="veh103" type="car" depart="51.5" from="1378252902" to="-536069245#1"/>
    <trip id="veh104" type="car" depart="52.0" from="-389934192#6" to="-747995210#4"/>
    <trip id="veh105" type="car" depart="52.5" from="-825130075#0" to="-927745004"/>
    <trip id="veh106" type="car" depart="53.0" from="826933356#2" to="888806189#0"/>
    <trip id="veh107" type="car" depart="53.5" from="754481683#0" to="389944013#2"/>
    <trip id="veh108" type="car" depart="54.0" from="389933122#9" to="-1378252899"/>
    <trip id="veh109" type="car" depart="54.5" from="748016296" to="535937546#3"/>
    <trip id="veh110" type="car" depart="55.0" from="-1145058117#0" to="286376620"/>
    <trip id="veh111" type="car" depart="55.5" from="389935994#3" to="965152738#1"/>
    <trip id="veh112" type="car" depart="56.0" from="389933122#8" to="-825130075#2"/>
    <trip id="veh113" type="car" depart="56.5" from="-825130075#2" to="-1145058115"/>
    <trip id="veh114" type="car" depart="57.0" from="1206064607#2" to="-747995215#0"/>
    <trip id="veh115" type="car" depart="57.5" from="-389944016#2" to="169359641#2"/>
    <trip id="veh116" type="car" depart="58.0" from="747995210#3" to="747995216#0"/>
    <trip id="veh117" type="car" depart="58.5" from="957099727" to="747995215#3"/>
    <trip id="veh118" type="car" depart="59.0" from="1309998212#1" to="-797563431#0"/>
    <trip id="veh119" type="car" depart="59.5" from="747995213#0" to="-841658563#1"/>
    <trip id="veh120" type="car" depart="60.0" from="1378258303" to="825130075#2"/>
    <trip id="veh121" type="car" depart="60.5" from="-286375416#4" to="957927647"/>
    <trip id="veh122" type="car" depart="61.0" from="-747995217#1" to="747995210#2"/>
    <trip id="veh123" type="car" depart="61.5" from="797563396#2" to="754481683#3"/>
    <trip id="veh124" type="car" depart="62.0" from="-535935820#4" to="-536069031#1"/>
    <trip id="veh125" type="car" depart="62.5" from="-1378248861" to="-960732367"/>
    <trip id="veh126" type="car" depart="63.0" from="-957099373" to="747995214#0"/>
    <trip id="veh127" type="car" depart="63.5" from="-286375416#0" to="-747995216#0"/>
    <trip id="veh128" type="car" depart="64.0" from="-389935994#6" to="1145058116"/>
    <trip id="veh129" type="car" depart="64.5" from="-747995210#6" to="-907662242"/>
    <trip id="veh130" type="car" depart="65.0" from="169359641#2" to="-960732608"/>
    <trip id="veh131" type="car" depart="65.5" from="169359641#2" to="-826933356#0"/>
    <trip id="veh132" type="car" depart="66.0" from="-678338592#0" to="-1309998215#1"/>
    <trip id="veh133" type="car" depart="66.5" from="1378252902" to="-389935994#2"/>
    <trip id="veh134" type="car" depart="67.0" from="927742829#0" to="957927473#0"/>
    <trip id="veh135" type="car" depart="67.5" from="-747995215#2" to="-841658563#0"/>
    <trip id="veh136" type="car" depart="68.0" from="-757509934#1" to="-286375416#2"/>
    <trip id="veh137" type="car" depart="68.5" from="-747995217#2" to="535937546#3"/>
    <trip id="veh138" type="car" depart="69.0" from="389935994#4" to="-1378258303"/>
    <trip id="veh139" type="car" depart="69.5" from="389934192#5" to="-389934193#5"/>
    <trip id="veh140" type="car" depart="70.0" from="-797839822" to="389935994#5"/>
    <trip id="veh141" type="car" depart="70.5" from="-797563396#0" to="-960732608"/>
    <trip id="veh142" type="car" depart="71.0" from="1378252917" to="-389937952#1"/>
    <trip id="veh143" type="car" depart="71.5" from="754240703#4" to="927749211#1"/>
    <trip id="veh144" type="car" depart="72.0" from="825130075#1" to="1077915957"/>
    <trip id="veh145" type="car" depart="72.5" from="-1378248861" to="798269714#0"/>
    <trip id="veh146" type="car" depart="73.0" from="286376621#1" to="747995214#2"/>
    <trip id="veh147" type="car" depart="73.5" from="-389944016#0" to="-747995215#0"/>
    <trip id="veh148" type="car" depart="74.0" from="389934192#0" to="-389944011"/>
    <trip id="veh149" type="car" depart="74.5" from="-754481682" to="389933122#8"/>
    <trip id="veh150" type="car" depart="75.0" from="-1309998211" to="-754240703#1"/>
    <trip id="veh151" type="car" depart="75.5" from="1378252912" to="535936518#0"/>
    <trip id="veh152" type="car" depart="76.0" from="-825130075#1" to="825130075#0"/>
    <trip id="veh153" type="car" depart="76.5" from="286376620" to="389933122#2"/>
    <trip id="veh154" type="car" depart="77.0" from="286376619" to="888806189#1"/>
    <trip id="veh155" type="car" depart="77.5" from="-895435633" to="-754481682"/>
    <trip id="veh156" type="car" depart="78.0" from="-389944012#1" to="-536069245#0"/>
    <trip id="veh157" type="car" depart="78.5" from="-968863701" to="-754481683#2"/>
    <trip id="veh158" type="car" depart="79.0" from="957927473#0" to="1166376405"/>
    <trip id="veh159" type="car" depart="79.5" from="1309998211" to="-747995216#0"/>
    <trip id="veh160" type="car" depart="80.0" from="756206420" to="-389944012#0"/>
    <trip id="veh161" type="car" depart="80.5" from="-747995210#5" to="389935995#1"/>
    <trip id="veh162" type="car" depart="81.0" from="-389934192#0" to="957927495"/>
    <trip id="veh163" type="car" depart="81.5" from="1309998215#0" to="-389934193#2"/>
    <trip id="veh164" type="car" depart="82.0" from="-757509934#1" to="286375416#2"/>
    <trip id="veh165" type="car" depart="82.5" from="-535936518#1" to="389934193#3"/>
    <trip id="veh166" type="car" depart="83.0" from="389937952#0" to="-757509934#2"/>
    <trip id="veh167" type="car" depart="83.5" from="-965152743#0" to="-747995215#2"/>
    <trip id="veh168" type="car" depart="84.0" from="1378252912" to="1378252900"/>
    <trip id="veh169" type="car" depart="84.5" from="-754806405#1" to="927754422"/>
    <trip id="veh170" type="car" depart="85.0" from="747995210#1" to="-738434647#1"/>
    <trip id="veh171" type="car" depart="85.5" from="-747995214#0" to="-738434647#1"/>
    <trip id="veh172" type="car" depart="86.0" from="1309998218" to="389944434#0"/>
    <trip id="veh173" type="car" depart="86.5" from="-747995210#0" to="-754240703#1"/>
    <trip id="veh174" type="car" depart="87.0" from="-389934192#3" to="-389934193#1"/>
    <trip id="veh175" type="car" depart="87.5" from="-389935994#6" to="1309998211"/>
    <trip id="veh176" type="car" depart="88.0" from="-957927849" to="-754240703#0"/>
    <trip id="veh177" type="car" depart="88.5" from="-859014806" to="-678338592#1"/>
    <trip id="veh178" type="car" depart="89.0" from="1166376808" to="968863701"/>
    <trip id="veh179" type="car" depart="89.5" from="-169359641#3" to="389944016#0"/>
    <trip id="veh180" type="car" depart="90.0" from="798269696" to="-1198546949"/>
    <trip id="veh181" type="car" depart="90.5" from="747995215#3" to="-747995214#2"/>
    <trip id="veh182" type="car" depart="91.0" from="-1206064607#2" to="907662242"/>
    <trip id="veh183" type="car" depart="91.5" from="-389933122#2" to="-797563396#2"/>
    <trip id="veh184" type="car" depart="92.0" from="536069031#0" to="286375416#6"/>
    <trip id="veh185" type="car" depart="92.5" from="-738434647#0" to="-169359641#3"/>
    <trip id="veh186" type="car" depart="93.0" from="389935994#1" to="-1378252911"/>
    <trip id="veh187" type="car" depart="93.5" from="286375416#6" to="738434647#0"/>
    <trip id="veh188" type="car" depart="94.0" from="747995210#2" to="965152738#1"/>
    <trip id="veh189" type="car" depart="94.5" from="-957927680" to="-747995215#0"/>
    <trip id="veh190" type="car" depart="95.0" from="-389933122#4" to="-148462086#4"/>
    <trip id="veh191" type="car" depart="95.5" from="-754806405#1" to="797839800"/>
    <trip id="veh192" type="car" depart="96.0" from="-957927647" to="-888806189#0"/>
    <trip id="veh193" type="car" depart="96.5" from="797839800" to="-747995214#0"/>
    <trip id="veh194" type="car" depart="97.0" from="-957927680" to="-895435633"/>
    <trip id="veh195" type="car" depart="97.5" from="-757509934#0" to="389934193#3"/>
    <trip id="veh196" type="car" depart="98.0" from="757509934#1" to="-826932271"/>
    <trip id="veh197" type="car" depart="98.5" from="-389933122#11" to="-757509934#2"/>
    <trip id="veh198" type="car" depart="99.0" from="825130075#2" to="1137585466#0"/>
    <trip id="veh199" type="car" depart="99.5" from="-1378252901" to="-389934192#5"/>
    <trip id="veh200" type="car" depart="100.0" from="-389934469" to="738434647#0"/>
    <trip id="veh201" type="car" depart="100.5" from="-1206064607#1" to="960732310"/>
    <trip id="veh202" type="car" depart="101.0" from="1378252899" to="-536069031#1"/>
    <trip id="veh203" type="car" depart="101.5" from="-389935994#2" to="957928613"/>
    <trip id="veh204" type="car" depart="102.0" from="-1309998212#0" to="756206420"/>
    <trip id="veh205" type="car" depart="102.5" from="-1378252904" to="747995213#1"/>
    <trip id="veh206" type="car" depart="103.0" from="169359641#3" to="-286375416#7"/>
    <trip id="veh207" type="car" depart="103.5" from="-389933122#6" to="-535935820#5"/>
    <trip id="veh208" type="car" depart="104.0" from="754806405#1" to="-389933122#10"/>
    <trip id="veh209" type="car" depart="104.5" from="678343424#0" to="-389944016#1"/>
    <trip id="veh210" type="car" depart="105.0" from="-1166376405" to="389933122#10"/>
    <trip id="veh211" type="car" depart="105.5" from="-888806189#0" to="747995215#0"/>
    <trip id="veh212" type="car" depart="106.0" from="841658563#0" to="286375416#0"/>
    <trip id="veh213" type="car" depart="106.5" from="-825130075#0" to="-389933122#6"/>
    <trip id="veh214" type="car" depart="107.0" from="758637976" to="-389944016#0"/>
    <trip id="veh215" type="car" depart="107.5" from="957927680" to="747995215#2"/>
    <trip id="veh216" type="car" depart="108.0" from="797839822" to="389944259#5"/>
    <trip id="veh217" type="car" depart="108.5" from="-389937952#1" to="-389934192#6"/>
    <trip id="veh218" type="car" depart="109.0" from="-747995215#2" to="-1166369441"/>
    <trip id="veh219" type="car" depart="109.5" from="965152751" to="535935820#2"/>
    <trip id="veh220" type="car" depart="110.0" from="927744411" to="747995217#1"/>
    <trip id="veh221" type="car" depart="110.5" from="535936518#1" to="-389934192#1"/>
    <trip id="veh222" type="car" depart="111.0" from="-1309998215#1" to="678338592#0"/>
    <trip id="veh223" type="car" depart="111.5" from="747995210#3" to="1309998215#0"/>
    <trip id="veh224" type="car" depart="112.0" from="-1378252899" to="960733242#2"/>
    <trip id="veh225" type="car" depart="112.5" from="747995210#3" to="960732310"/>
    <trip id="veh226" type="car" depart="113.0" from="1378258303" to="-389933122#2"/>
    <trip id="veh227" type="car" depart="113.5" from="747995210#4" to="-536069245#1"/>
    <trip id="veh228" type="car" depart="114.0" from="1175380689#1" to="389934469"/>
    <trip id="veh229" type="car" depart="114.5" from="-148462086#4" to="960732489"/>
    <trip id="veh230" type="car" depart="115.0" from="-747995217#0" to="1378248860"/>
    <trip id="veh231" type="car" depart="115.5" from="-1378252917" to="-1378252918#0"/>
    <trip id="veh232" type="car" depart="116.0" from="927744411" to="1378252904"/>
    <trip id="veh233" type="car" depart="116.5" from="-1137585465" to="286375416#2"/>
    <trip id="veh234" type="car" depart="117.0" from="286375416#0" to="-747995214#2"/>
    <trip id="veh235" type="car" depart="117.5" from="-389944013#2" to="-389934469"/>
    <trip id="veh236" type="car" depart="118.0" from="1213251323#1" to="536069245#1"/>
    <trip id="veh237" type="car" depart="118.5" from="-389933122#7" to="1378252912"/>
    <trip id="veh238" type="car" depart="119.0" from="389937952#0" to="754481683#3"/>
    <trip id="veh239" type="car" depart="119.5" from="957929109" to="-389935994#7"/>
    <trip id="veh240" type="car" depart="120.0" from="-389944434#1" to="-960732367"/>
    <trip id="veh241" type="car" depart="120.5" from="389934192#0" to="389944259#5"/>
    <trip id="veh242" type="car" depart="121.0" from="1145058117#1" to="-747995216#1"/>
    <trip id="veh243" type="car" depart="121.5" from="-754481683#3" to="-389935994#3"/>
    <trip id="veh244" type="car" depart="122.0" from="965152757" to="-754240703#3"/>
    <trip id="veh245" type="car" depart="122.5" from="965152758" to="-960732096"/>
    <trip id="veh246" type="car" depart="123.0" from="1378248861" to="389943098"/>
    <trip id="veh247" type="car" depart="123.5" from="286376621#0" to="-888806189#1"/>
    <trip id="veh248" type="car" depart="124.0" from="1378252902" to="-797563431#1"/>
    <trip id="veh249" type="car" depart="124.5" from="-389944013#4" to="1206064607#3"/>
    <trip id="veh250" type="car" depart="125.0" from="389933122#3" to="1145058117#0"/>
    <trip id="veh251" type="car" depart="125.5" from="1378252902" to="-1166376405"/>
    <trip id="veh252" type="car" depart="126.0" from="960733242#2" to="389943098"/>
    <trip id="veh253" type="car" depart="126.5" from="-754481682" to="389933122#3"/>
    <trip id="veh254" type="car" depart="127.0" from="-797563431#0" to="754806405#1"/>
    <trip id="veh255" type="car" depart="127.5" from="-1137585466#1" to="-389934192#1"/>
    <trip id="veh256" type="car" depart="128.0" from="754481683#3" to="1213251323#1"/>
    <trip id="veh257" type="car" depart="128.5" from="-826933356#4" to="-148462086#2"/>
    <trip id="veh258" type="car" depart="129.0" from="957927982" to="-797563417"/>
    <trip id="veh259" type="car" depart="129.5" from="389934192#5" to="286376621#1"/>
    <trip id="veh260" type="car" depart="130.0" from="389934193#7" to="-535936518#1"/>
    <trip id="veh261" type="car" depart="130.5" from="-389935995#1" to="-389944016#3"/>
    <trip id="veh262" type="car" depart="131.0" from="-389944013#3" to="-389944434#1"/>
    <trip id="veh263" type="car" depart="131.5" from="286375416#1" to="389934192#0"/>
    <trip id="veh264" type="car" depart="132.0" from="-841658563#2" to="-389933122#4"/>
    <trip id="veh265" type="car" depart="132.5" from="-678343091" to="-286375416#6"/>
    <trip id="veh266" type="car" depart="133.0" from="-1309998218" to="1175380688"/>
    <trip id="veh267" type="car" depart="133.5" from="-389944011" to="797839800"/>
    <trip id="veh268" type="car" depart="134.0" from="-389937952#1" to="-535937546#3"/>
    <trip id="veh269" type="car" depart="134.5" from="-797563431#0" to="389934192#2"/>
    <trip id="veh270" type="car" depart="135.0" from="957929338" to="678343424#1"/>
    <trip id="veh271" type="car" depart="135.5" from="1378248862" to="-797563417"/>
    <trip id="veh272" type="car" depart="136.0" from="-678343091" to="825130075#1"/>
    <trip id="veh273" type="car" depart="136.5" from="-389944434#1" to="-536069245#0"/>
    <trip id="veh274" type="car" depart="137.0" from="754481683#1" to="-1213251323#1"/>
    <trip id="veh275" type="car" depart="137.5" from="-888806189#0" to="286376621#0"/>
    <trip id="veh276" type="car" depart="138.0" from="148462086#1" to="389944259#1"/>
    <trip id="veh277" type="car" depart="138.5" from="-389934193#3" to="797563396#0"/>
    <trip id="veh278" type="car" depart="139.0" from="-389933122#10" to="-859014806"/>
    <trip id="veh279" type="car" depart="139.5" from="-1145058117#1" to="747995215#3"/>
    <trip id="veh280" type="car" depart="140.0" from="965152744" to="389944259#4"/>
    <trip id="veh281" type="car" depart="140.5" from="957099096" to="-747995210#6"/>
    <trip id="veh282" type="car" depart="141.0" from="-535937546#3" to="747995210#4"/>
    <trip id="veh283" type="car" depart="141.5" from="389935994#7" to="965152750"/>
    <trip id="veh284" type="car" depart="142.0" from="-389934471" to="927742829#0"/>
    <trip id="veh285" type="car" depart="142.5" from="927745004" to="-389944259#0"/>
    <trip id="veh286" type="car" depart="143.0" from="389933122#2" to="-389934469"/>
    <trip id="veh287" type="car" depart="143.5" from="-754240703#1" to="-148462086#1"/>
    <trip id="veh288" type="car" depart="144.0" from="-389944016#0" to="389934192#5"/>
    <trip id="veh289" type="car" depart="144.5" from="-389934192#5" to="-747995215#3"/>
    <trip id="veh290" type="car" depart="145.0" from="-747995215#3" to="-747995210#4"/>
    <trip id="veh291" type="car" depart="145.5" from="-535937546#0" to="-389935994#1"/>
    <trip id="veh292" type="car" depart="146.0" from="-798269696" to="-1137585466#1"/>
    <trip id="veh293" type="car" depart="146.5" from="-747995210#1" to="1378248861"/>
    <trip id="veh294" type="car" depart="147.0" from="-169359641#1" to="965152738#0"/>
    <trip id="veh295" type="car" depart="147.5" from="-961937833" to="389934469"/>
    <trip id="veh296" type="car" depart="148.0" from="-825130075#0" to="-754481683#0"/>
    <trip id="veh297" type="car" depart="148.5" from="-389933122#4" to="678338592#1"/>
    <trip id="veh298" type="car" depart="149.0" from="-747995216#1" to="-1305856230"/>
    <trip id="veh299" type="car" depart="149.5" from="-754481683#0" to="286375416#1"/>
    <trip id="veh300" type="car" depart="150.0" from="389944016#1" to="-960733242#2"/>
    <trip id="veh301" type="car" depart="150.5" from="1213251323#0" to="-1309998216"/>
    <trip id="veh303" type="car" depart="151.5" from="148462086#0" to="-148462086#2"/>
    <trip id="veh304" type="car" depart="152.0" from="965152749" to="960732608"/>
    <trip id="veh305" type="car" depart="152.5" from="-965152757" to="797563396#2"/>
    <trip id="veh306" type="car" depart="153.0" from="-965152738#1" to="-535937546#1"/>
    <trip id="veh307" type="car" depart="153.5" from="747995215#0" to="927749211#0"/>
    <trip id="veh308" type="car" depart="154.0" from="754806405#0" to="535936518#1"/>
    <trip id="veh309" type="car" depart="154.5" from="-389935995#1" to="-148462086#4"/>
    <trip id="veh310" type="car" depart="155.0" from="-389944259#0" to="-957929338"/>
    <trip id="veh311" type="car" depart="155.5" from="-841658563#0" to="678343424#0"/>
    <trip id="veh312" type="car" depart="156.0" from="797563417" to="-754481684#0"/>
    <trip id="veh313" type="car" depart="156.5" from="-738434646" to="957927473#1"/>
    <trip id="veh314" type="car" depart="157.0" from="-389933122#10" to="-798269714#0"/>
    <trip id="veh315" type="car" depart="157.5" from="754481684#0" to="957929109"/>
    <trip id="veh316" type="car" depart="158.0" from="-965152743#1" to="-389934192#6"/>
    <trip id="veh317" type="car" depart="158.5" from="-1166376404" to="-927749211#0"/>
    <trip id="veh318" type="car" depart="159.0" from="965152757" to="1378252901"/>
    <trip id="veh319" type="car" depart="159.5" from="-444400585#1" to="-826933356#2"/>
    <trip id="veh320" type="car" depart="160.0" from="678340754#0" to="286375416#7"/>
    <trip id="veh321" type="car" depart="160.5" from="-1309998212#2" to="-389935994#5"/>
    <trip id="veh322" type="car" depart="161.0" from="-754240703#1" to="-797563396#0"/>
    <trip id="veh323" type="car" depart="161.5" from="-754481684#0" to="-1145058116"/>
    <trip id="veh324" type="car" depart="162.0" from="-826933356#1" to="747995210#4"/>
    <trip id="veh325" type="car" depart="162.5" from="927742960" to="535935820#3"/>
    <trip id="veh326" type="car" depart="163.0" from="286375416#5" to="957099096"/>
    <trip id="veh327" type="car" depart="163.5" from="957927495" to="-747995215#3"/>
    <trip id="veh328" type="car" depart="164.0" from="-389935995#0" to="798269714#1"/>
    <trip id="veh329" type="car" depart="164.5" from="-678343091" to="389934192#1"/>
    <trip id="veh330" type="car" depart="165.0" from="960732096" to="389935994#2"/>
    <trip id="veh331" type="car" depart="165.5" from="678343421" to="286375416#7"/>
    <trip id="veh332" type="car" depart="166.0" from="389944259#1" to="535935820#4"/>
    <trip id="veh333" type="car" depart="166.5" from="1309998212#0" to="535936518#0"/>
    <trip id="veh334" type="car" depart="167.0" from="-389933122#3" to="-389944435"/>
    <trip id="veh335" type="car" depart="167.5" from="825130075#0" to="1378252918#0"/>
    <trip id="veh336" type="car" depart="168.0" from="-747995217#1" to="965152743#1"/>
    <trip id="veh337" type="car" depart="168.5" from="-1189302973" to="-907662242"/>
    <trip id="veh338" type="car" depart="169.0" from="-389944013#1" to="-756206420"/>
    <trip id="veh339" type="car" depart="169.5" from="754240704" to="1378252903"/>
    <trip id="veh340" type="car" depart="170.0" from="389935994#1" to="-169359641#3"/>
    <trip id="veh341" type="car" depart="170.5" from="-389934192#2" to="389944260"/>
    <trip id="veh342" type="car" depart="171.0" from="-960732608" to="-927742829#0"/>
    <trip id="veh343" type="car" depart="171.5" from="389933122#2" to="-797563417"/>
    <trip id="veh344" type="car" depart="172.0" from="747995210#2" to="389944016#0"/>
    <trip id="veh345" type="car" depart="172.5" from="389933122#1" to="-389933122#4"/>
    <trip id="veh346" type="car" depart="173.0" from="-389944012#1" to="-825130075#0"/>
    <trip id="veh347" type="car" depart="173.5" from="389935994#1" to="389944012#1"/>
    <trip id="veh348" type="car" depart="174.0" from="-758637976" to="-389933122#7"/>
    <trip id="veh349" type="car" depart="174.5" from="798269696" to="1175380689#0"/>
    <trip id="veh350" type="car" depart="175.0" from="-389933122#8" to="286375718"/>