<?xml version="1.0" encoding="UTF-8"?>

<!-- generated on 2026-03-17 23:33:24 by Eclipse SUMO duarouter Version 1.24.0
<duarouterConfiguration xmlns:xsi="http://www.w3.org/2001/XMLSchema-instance" xsi:noNamespaceSchemaLocation="http://sumo.dlr.de/xsd/duarouterConfiguration.xsd">

    <input>
        <net-file value="best_map.net.xml"/>
        <route-files value="raw_trips.trips.xml"/>
    </input>

    <output>
        <output-file value="simulation_optimized.rou.xml"/>
    </output>

    <report>
        <no-warnings value="true"/>
        <ignore-errors value="true"/>
        <no-step-log value="true"/>
    </report>

</duarouterConfiguration>
-->

<routes xmlns:xsi="http://www.w3.org/2001/XMLSchema-instance" xsi:noNamespaceSchemaLocation="http://sumo.dlr.de/xsd/routes_file.xsd">
    <vType id="car" length="5.00" maxSpeed="50.00" accel="2.6" decel="4.5" sigma="0.5"/>
    <vehicle id="veh1" type="car" depart="0.50">
        <route edges="-535935820#2 -535935820#1 -535935820#0 -169359641#3 -169359641#2 -169359641#1 -169359641#0 -1175380689#1 -1175380689#0 754481682 754481683#0 754481683#1 389944259#0 389944259#1 389944259#2 389944259#3 389944259#4"/>
    </vehicle>
    <vehicle id="veh2" type="car" depart="1.00">
        <route edges="747995217#2 747995216#1 -148462086#1 -148462086#0 -389933122#6 -389933122#5 -389933122#4 -389933122#3 -389933122#2 -389933122#1 -389933122#0 535935820#0 535935820#1 -286375416#7 -286375416#6 -286375416#5 -286375416#4 -286375416#3 965152738#0 965152738#1 -965152738#1"/>
    </vehicle>
    <vehicle id="veh3" type="car" depart="1.50">
        <route edges="-1041350970 1041350970 1378252918#1 -1145058117#1 -1145058117#0 1145058115 1145058116 -1206064607#2 389934193#0 389934193#1 389934193#2 389934193#3 389934193#4 389934193#5 389934193#6 389934193#7 -1175380689#0 754481682 754481683#0 754481683#1 754481683#2 754481683#3 738434646 389943098 1175380688 754240704 965152757 965152758 754240703#0 389935994#0 389935994#1 389935994#2 389935994#3 747995210#0 -980875385"/>
    </vehicle>
    <vehicle id="veh4" type="car" depart="2.00">
        <route edges="-389935994#6 -389935994#5 -389935994#4 747995210#0 747995210#1 957927680"/>
    </vehicle>
    <vehicle id="veh5" type="car" depart="2.50">
        <route edges="-1378248860 -797563413 -389933122#10 -389933122#9 -389933122#8 -389933122#7 -389933122#6 -389933122#5 -389933122#4 -389933122#3 -389933122#2 -389933122#1 -389933122#0 -169359641#3 -169359641#2 -169359641#1 -169359641#0 -1175380689#1 -389934193#7 -389934193#6 -389934193#5 -389934193#4 -389934193#3 -389934193#2 -389934193#1 -389934193#0 -389934192#6 -389934192#5 -389934192#4 -389934192#3 1309998212#0 1309998212#1 1309998212#2 -1309998212#2"/>
    </vehicle>
    <vehicle id="veh6" type="car" depart="3.00">
        <route edges="-747995216#1 747995216#1 -148462086#1 -148462086#0 -389933122#6 -389933122#5 -389933122#4 -389933122#3 -389933122#2 -389933122#1 -389933122#0 -169359641#3 -169359641#2 -169359641#1 -169359641#0 -1175380689#1 -1175380689#0 754481682 754481683#0 754481683#1 389944259#0 389944259#1 389944259#2 678343421"/>
    </vehicle>
    <vehicle id="veh7" type="car" depart="3.50">
        <route edges="148462086#0 -148462086#0 -389933122#6 -389933122#5 -389933122#4 -389933122#3 -389933122#2 -389933122#1 -389933122#0 535935820#0 535935820#1 -286375416#7 -286375416#6 -286375416#5 -286375416#4 -286375416#3 -286375416#2 -286375416#1 286375718 -286375718"/>
    </vehicle>
    <vehicle id="veh8" type="car" depart="4.00">
        <route edges="-286376619 286376619 -389934193#3 -389934193#2 -389934193#1 -389944434#1 960732608 -960732608"/>
    </vehicle>
    <vehicle id="veh9" type="car" depart="4.50">
        <route edges="678340754#0 -1309998218 389934192#4 389934192#5 389934192#6 389934193#0 389934193#1 389934193#2 389934193#3 389934193#4 389934193#5 389934193#6 389934193#7 1175380689#1 -965152743#1 -965152743#0 -965152744"/>
    </vehicle>
    <vehicle id="veh10" type="car" depart="5.00">
        <route edges="957927982 -957927982 747995210#5 747995210#6 389935994#3 389935994#4 389935994#5 -747995214#2 -747995214#1 -747995214#0"/>
    </vehicle>
    <vehicle id="veh11" type="car" depart="5.50">
        <route edges="535935820#1 -535935820#1 -535935820#0 -169359641#3 -169359641#2 -169359641#1 -169359641#0 -1175380689#1 -389934193#7 -389934193#6 -389934193#5 -389934193#4 -389934193#3 -389934193#2 -389934193#1 -389934193#0 -389934192#6 -389934192#5 -389934192#4 -389934192#3 -389934192#2 -389934192#1 -444400585#1 -444400585#0"/>
    </vehicle>
    <vehicle id="veh12" type="car" depart="6.00">
        <route edges="1378258303 -1378258303 535937546#2 535937546#3 965152750 965152749 -747995215#0 -895435633 -756206420 738434647#1 965152744 965152743#0 965152743#1 -1175380689#1 -389934193#7 -389934193#6 -389934193#5 -389934193#4 -389934193#3 -389944016#3 -389944016#2 -389944016#1 -389944013#3"/>
    </vehicle>
    <vehicle id="veh13" type="car" depart="6.50">
        <route edges="957927849 -957927849 -747995210#2 -747995210#1 -747995210#0 -389935994#3 -389935994#2 -389935994#1 -389935994#0 -754240703#0 -965152758 -965152757 -754240704 -1175380688 -389943098 -738434646 -754481683#3 -754481683#2 -754481683#1 -826933356#4 -826933356#3 -826933356#2 -826933356#1 927742829#0 927742829#1"/>
    </vehicle>
    <vehicle id="veh14" type="car" depart="7.00">
        <route edges="-1378252918#1 1378252918#1 -1145058117#1 -1145058117#0 1145058115 1145058116 -1206064607#2 389934193#0 389934193#1 389934193#2 389934193#3 389934193#4 389934193#5 389934193#6 389934193#7 1175380689#1 -965152743#1 -965152743#0 -965152744 -738434647#1 756206420 895435633 747995215#0"/>
    </vehicle>
    <vehicle id="veh15" type="car" depart="7.50">
        <route edges="-957099096 957099096 286375416#5 286375416#6 1378252912 1309998210"/>
    </vehicle>
    <vehicle id="veh16" type="car" depart="8.00">
        <route edges="826933356#4 -754481683#0 -754481682 1175380689#0 1175380689#1 169359641#0 748016296"/>
    </vehicle>
    <vehicle id="veh18" type="car" depart="9.00">
        <route edges="389933122#3 389933122#4 798269696 798269714#0 1378248863 -535936518#1 -535936518#0"/>
    </vehicle>
    <vehicle id="veh19" type="car" depart="9.50">
        <route edges="747995215#1 754481684#0 825130075#0 825130075#1 -957929109 -535937546#0 -389933122#3 -389933122#2 -389933122#1 -389933122#0 535935820#0 535935820#1 -286375416#7 -286375416#6 -286375416#5 -286375416#4 -286375416#3 -286375416#2 -286375416#1 286375718 -286375718"/>
    </vehicle>
    <vehicle id="veh20" type="car" depart="10.00">
        <route edges="-678343091 -389944259#4 -389944259#3 -389944259#2 -389944259#1 -389944259#0 754481683#2 754481683#3 738434646 389943098 1175380688 754240704 965152757 965152758 754240703#0 389935994#0 957927473#0 957927495 -957927495"/>
    </vehicle>
    <vehicle id="veh21" type="car" depart="10.50">
        <route edges="-389935994#4 -389935994#3 -389935994#2 -389935994#1 -389935994#0 -754240703#0 -965152758 -965152757 -754240704 -1175380688 738434647#0 738434647#1 965152744 965152743#0 965152743#1 169359641#0 169359641#1 169359641#2 169359641#3 535935820#0 535935820#1 -286375416#7 -286375416#6 -286375416#5 -286375416#4 1213251323#0 1213251323#1 1213251323#2"/>
    </vehicle>
    <vehicle id="veh22" type="car" depart="11.00">
        <route edges="-1175380689#1 -389934193#7 -389934193#6 -389934193#5 -389934193#4 -389934193#3 -389934193#2 -389934193#1 -389944434#1 -389944434#0 -389944013#4"/>
    </vehicle>
    <vehicle id="veh23" type="car" depart="11.50">
        <route edges="-957099727 389944434#0 389944434#1 -389934193#0 -389934192#6 -389934192#5 -389934192#4 -389934192#3 1309998212#0 1309998214"/>
    </vehicle>
    <vehicle id="veh24" type="car" depart="12.00">
        <route edges="-960733242#1 -1309998216 -1309998215#0 389934192#6 389934193#0 389934193#1 389934193#2 389934193#3 389934193#4 389934193#5 389934193#6 389934193#7 -1175380689#0 754481682 754481683#0 754481683#1 389944259#0 960732367"/>
    </vehicle>
    <vehicle id="veh25" type="car" depart="12.50">
        <route edges="-286375416#2 1198546949 678338592#1 286375416#6 286375416#7 -535935820#1 -535935820#0 -169359641#3 -169359641#2 -169359641#1 -169359641#0 -965152743#1 -965152743#0 -965152744 -738434647#1 -738434647#0 -389943098 -738434646 -754481683#3"/>
    </vehicle>
    <vehicle id="veh26" type="car" depart="13.00">
        <route edges="-747995214#2 747995214#2 -389935994#5 -389935994#4 747995210#0 747995210#1 957927680 -957927680"/>
    </vehicle>
    <vehicle id="veh27" type="car" depart="13.50">
        <route edges="1206064607#0 1206064607#1 389934193#0 389934193#1 389934193#2 389934193#3 389934193#4 389934193#5 389934193#6 389934193#7 1175380689#1 169359641#0 169359641#1 169359641#2 169359641#3 389933122#0 389933122#1 389933122#2 389933122#3 389933122#4 389933122#5 389933122#6 148462086#0 148462086#1 -747995216#1 -747995216#0"/>
    </vehicle>
    <vehicle id="veh28" type="car" depart="14.00">
        <route edges="-389944260 -389944259#1 -389944259#0 -754481683#1 -754481683#0 -754481682 1175380689#0 1175380689#1 169359641#0 169359641#1 169359641#2 797563396#0 1378258304 -1378258304"/>
    </vehicle>
    <vehicle id="veh31" type="car" depart="15.50">
        <route edges="747995216#1 -148462086#1 -148462086#0 -389933122#6 -389933122#5 -389933122#4 -389933122#3 -389933122#2 -389933122#1 -389933122#0 -169359641#3 -169359641#2 -169359641#1 -169359641#0 -1175380689#1 -389934193#7 -389934193#6 -389934193#5 -389934193#4 -389934193#3 -389934193#2 -389934193#1 -389934193#0 -389934192#6 -389934192#5 -389934192#4 -389934192#3 389934192#3"/>
    </vehicle>
    <vehicle id="veh32" type="car" depart="16.00">
        <route edges="-389944013#3 389944013#3 389944016#1 389944016#2 389944016#3 -389934193#2 -389934193#1 -389934193#0 -389934192#6 -389934192#5 -389934192#4 -389934192#3 1309998212#0 1309998212#1 1309998213 -1309998213"/>
    </vehicle>
    <vehicle id="veh33" type="car" depart="16.50">
        <route edges="747995210#3 747995210#4 747995210#5 747995210#6 -389935994#2 -389935994#1 -389935994#0 -754240703#0 -965152758 -965152757 -754240704 -1175380688 -389943098 -738434646 -754481683#3 -754481683#2 -754481683#1 -754481683#0 -754481682 1175380689#0 -389934193#7 -389934193#6 -389934193#5 -389934193#4 -389934193#3 -389944016#3"/>
    </vehicle>
    <vehicle id="veh34" type="car" depart="17.00">
        <route edges="-754240703#3 389937952#0 389937952#1 -389935994#4 747995210#0 747995210#1 -747995210#1"/>
    </vehicle>
    <vehicle id="veh35" type="car" depart="17.50">
        <route edges="389934193#2 -389934193#2 -389934193#1 -389934193#0 -389934192#6 -389934192#5 -960733242#1"/>
    </vehicle>
    <vehicle id="veh36" type="car" depart="18.00">
        <route edges="-389934193#0 1206064607#2 1206064607#3 536069245#0 536069245#1"/>
    </vehicle>
    <vehicle id="veh37" type="car" depart="18.50">
        <route edges="-389933122#4 -389933122#3 -389933122#2 -389933122#1 -389933122#0 535935820#0 535935820#1 535935820#2 535935820#3 535935820#4 -535935820#4"/>
    </vehicle>
    <vehicle id="veh38" type="car" depart="19.00">
        <route edges="-957099096 957099096 286375416#5 286375416#6 286375416#7 -535935820#1 -535935820#0 -169359641#3 -169359641#2 -169359641#1 -169359641#0 -965152743#1 -965152743#0 -965152744 -738434647#1 -738434647#0 738434647#0"/>
    </vehicle>
    <vehicle id="veh39" type="car" depart="19.50">
        <route edges="389944016#1 389944016#2 389944016#3 389934193#3 389934193#4 389934193#5 389934193#6 389934193#7 1175380689#1 169359641#0 169359641#1 169359641#2 169359641#3 389933122#0 389933122#1 389933122#2 389933122#3 535937546#0 957929109 825130075#2"/>
    </vehicle>
    <vehicle id="veh41" type="car" depart="20.50">
        <route edges="-1309998218 389934192#4 389934192#5 389934192#6 389934193#0 389934193#1 389934193#2 389934193#3 389934193#4 389934193#5 389934193#6 389934193#7 1175380689#1 169359641#0 169359641#1 169359641#2 797563396#0 -797563396#0"/>
    </vehicle>
    <vehicle id="veh43" type="car" depart="21.50">
        <route edges="-1077915957 841658563#1 841658563#2 389934193#2 -389944016#3 -389944016#2 389944016#2"/>
    </vehicle>
    <vehicle id="veh44" type="car" depart="22.00">
        <route edges="747995215#0 747995215#1 747995215#2 747995215#3 -747995215#3"/>
    </vehicle>
    <vehicle id="veh45" type="car" depart="22.50">
        <route edges="754481683#2 754481683#3 738434646 389943098 1175380688 754240704 965152757 965152758 754240703#0 389935994#0 957927473#0 957927495 -957927495"/>
    </vehicle>
    <vehicle id="veh46" type="car" depart="23.00">
        <route edges="-1166376808 757509934#2 -148462086#3 -148462086#2 -148462086#1 -148462086#0 -389933122#6 -389933122#5 -389933122#4 535937546#0 535937546#1 535937546#2 -535937546#2"/>
    </vehicle>
    <vehicle id="veh47" type="car" depart="23.50">
        <route edges="535935820#2 -535935820#2 -535935820#1 -535935820#0 -169359641#3 -169359641#2 -169359641#1 -169359641#0 -965152743#1 -965152743#0 -965152744 -738434647#1 756206420"/>
    </vehicle>
    <vehicle id="veh48" type="car" depart="24.00">
        <route edges="-389944259#3 -389944259#2 -389944259#1 -389944259#0 -754481683#1 -754481683#0 -754481682 1175380689#0 1175380689#1 169359641#0 169359641#1 169359641#2 169359641#3 389933122#0 -797563396#2 1378252904"/>
    </vehicle>
    <vehicle id="veh49" type="car" depart="24.50">
        <route edges="-888806189#1 -888806189#0 389944016#3 389934193#3 389934193#4 389934193#5 389934193#6 389934193#7 -1175380689#0 754481682 754481683#0 754481683#1 754481683#2 754481683#3 738434646 389943098 1175380688 754240704 965152757 965152758 754240703#0 754240703#1 754240703#2 754240703#3 754240703#4 -754240703#4"/>
    </vehicle>
    <vehicle id="veh50" type="car" depart="25.00">
        <route edges="1305856230 -389944013#0 -888806189#2 1137585466#0 1137585465 389934193#5 389934193#6 389934193#7 1175380689#1 169359641#0 169359641#1 169359641#2 169359641#3 389933122#0 389933122#1 389933122#2 389933122#3 389933122#4 389933122#5 389933122#6 148462086#0 148462086#1 -747995216#1 -747995217#2 -825130075#2"/>
    </vehicle>
    <vehicle id="veh51" type="car" depart="25.50">
        <route edges="169359641#1 -169359641#1 -169359641#0 -1175380689#1 -1175380689#0 754481682 754481683#0 -826933356#4 -826933356#3 -826933356#2 -826933356#1 927742829#0 927742960"/>
    </vehicle>
    <vehicle id="veh52" type="car" depart="26.00">
        <route edges="-536069245#0 -1206064607#3 1206064607#3 536069245#0 536069245#1 -536069031#0 536069031#0"/>
    </vehicle>
    <vehicle id="veh53" type="car" depart="26.50">
        <route edges="389934193#1 389934193#2 389934193#3 389934193#4 389934193#5 389934193#6 389934193#7 1175380689#1 169359641#0 169359641#1 169359641#2 169359641#3 389933122#0 389933122#1 389933122#2 389933122#3 389933122#4 -389933122#4"/>
    </vehicle>
    <vehicle id="veh54" type="car" depart="27.00">
        <route edges="747995214#1 747995214#2 -389935994#5 -389935994#4 -389935994#3 -389935994#2 -389935994#1 -389935994#0 -754240703#0 -965152758 -965152757 -754240704 -1175380688 738434647#0 738434647#1 965152744 965152743#0 965152743#1 169359641#0 169359641#1 169359641#2 169359641#3 535935820#0 535935820#1 535935820#2 535935820#3 535935820#4 535935820#5 -535935820#5"/>
    </vehicle>
    <vehicle id="veh55" type="car" depart="27.50">
        <route edges="-980875385 747995210#6 -389935994#2 -389935994#1 -389935994#0 -754240703#0 -965152758 -965152757 -754240704 -1175380688 738434647#0 738434647#1 965152744 965152743#0 965152743#1 169359641#0 169359641#1 169359641#2 169359641#3 535935820#0 535935820#1"/>
    </vehicle>
    <vehicle id="veh56" type="car" depart="28.00">
        <route edges="-797563396#0 -169359641#2 -169359641#1 -169359641#0 -1175380689#1 -1175380689#0 754481682 754481683#0 754481683#1 -754481683#1"/>
    </vehicle>
    <vehicle id="veh57" type="car" depart="28.50">
        <route edges="754481683#1 -754481683#1 -754481683#0 -754481682 1175380689#0 -389934193#7 -389934193#6 -389934193#5 -1137585465 1137585466#1 -1137585466#1"/>
    </vehicle>
    <vehicle id="veh58" type="car" depart="29.00">
        <route edges="286375416#5 286375416#6 286375416#7 -535935820#1 -535935820#0 -169359641#3 -169359641#2 -169359641#1 -169359641#0 -1175380689#1 1175380689#1"/>
    </vehicle>
    <vehicle id="veh59" type="car" depart="29.50">
        <route edges="-965152743#0 -965152744 -738434647#1 738434647#1 965152744 965152743#0 965152743#1 169359641#0 169359641#1 169359641#2 169359641#3 389933122#0 389933122#1 -1378252903"/>
    </vehicle>
    <vehicle id="veh60" type="car" depart="30.00">
        <route edges="-957099727 389944434#0 389944434#1 389934193#1 389934193#2 389934193#3 389934193#4 389934193#5 389934193#6 389934193#7 1175380689#1 169359641#0 169359641#1 169359641#2 169359641#3 389933122#0 389933122#1 389933122#2 389933122#3 389933122#4 389933122#5 389933122#6 148462086#0 797563431#0 797563431#1"/>
    </vehicle>
    <vehicle id="veh61" type="car" depart="30.50">
        <route edges="757509934#2 -148462086#3 -148462086#2 -148462086#1 -148462086#0 -389933122#6 -389933122#5 -389933122#4 -389933122#3 -389933122#2 -389933122#1 -389933122#0 -169359641#3 -169359641#2 -169359641#1 -169359641#0 -965152743#1 -965152743#0 -965152744 -738434647#1 -738434647#0 1175380688 754240704 965152757 965152758 754240703#0 754240703#1 754240703#2 754240703#3 754240703#4 -754240703#4"/>
    </vehicle>
    <vehicle id="veh62" type="car" depart="31.00">
        <route edges="-1145058117#0 1145058115 1145058116 -1206064607#2 389934193#0 389934193#1 389934193#2 -389944016#3 -389944016#2 -389944016#1"/>
    </vehicle>
    <vehicle id="veh63" type="car" depart="31.50">
        <route edges="389944016#2 389944016#3 389934193#3 389934193#4 389934193#5 389934193#6 389934193#7 1175380689#1 -965152743#1 -965152743#0 -965152744 -738434647#1 756206420 895435633 747995215#0 747995215#1 754481684#0 754481684#1 747995217#1"/>
    </vehicle>
    <vehicle id="veh64" type="car" depart="32.00">
        <route edges="747995210#1 -747995210#1 -747995210#0 -389935994#3 -389935994#2 -389935994#1 -389935994#0 -754240703#0 -965152758 -965152757 -754240704 -1175380688 1175380688 754240704 965152757"/>
    </vehicle>
    <vehicle id="veh65" type="car" depart="32.50">
        <route edges="1378248863 -535936518#1 -535935820#5 -535935820#4 -535935820#3 -535935820#2 -535935820#1 -535935820#0 -169359641#3 -169359641#2 -169359641#1 -169359641#0 -965152743#1 -965152743#0 -965152744 -738434647#1 -738434647#0 1175380688 754240704 965152757 965152758 754240703#0 754240703#1 754240703#2 389937952#0 389937952#1"/>
    </vehicle>
    <vehicle id="veh66" type="car" depart="33.00">
        <route edges="747995210#5 747995210#6 -389935994#2 -389935994#1 -389935994#0 -754240703#0 -965152758 -965152757 -754240704 -1175380688 -389943098 -738434646 -754481683#3 927744411 927745004 -678343424#0"/>
    </vehicle>
    <vehicle id="veh67" type="car" depart="33.50">
        <route edges="-825130075#1 -825130075#0 -754481684#0 -747995215#1 -747995215#0 -895435633 -756206420 -738434647#0 1175380688 754240704 965152757 965152758 754240703#0 389935994#0 389935994#1 389935994#2 -747995210#6 -747995210#5 -747995210#4 927754422 -927754422"/>
    </vehicle>
    <vehicle id="veh68" type="car" depart="34.00">
        <route edges="678343424#0 -927745004 -927744411 754481683#3 738434646 389943098 738434647#0 738434647#1"/>
    </vehicle>
    <vehicle id="veh69" type="car" depart="34.50">
        <route edges="-389944434#0 389944434#0 389944434#1 389934193#1 389934193#2 389934193#3 389934193#4 389934193#5 389934193#6 389934193#7 1175380689#1 169359641#0 169359641#1 169359641#2 169359641#3 535935820#0 535935820#1 -286375416#7 -286375416#6 -286375416#5 -286375416#4 -286375416#3 -286375416#2 -286375416#1 286375718 -286375718"/>
    </vehicle>
    <vehicle id="veh70" type="car" depart="35.00">
        <route edges="1206064607#3 536069245#0 841658563#0 841658563#1 841658563#2 389934193#2 389934193#3 389934193#4 389934193#5 -389934193#5"/>
    </vehicle>
    <vehicle id="veh71" type="car" depart="35.50">
        <route edges="-1378252918#1 1378252918#1 -1145058117#1 -960733242#2 -389934192#4 -389934192#3 1309998212#0 1309998212#1 1309998212#2 -1309998212#2"/>
    </vehicle>
    <vehicle id="veh72" type="car" depart="36.00">
        <route edges="389934193#1 389934193#2 389934193#3 389934193#4 389934193#5 389934193#6 389934193#7 -1175380689#0 754481682 754481683#0 754481683#1 754481683#2 927744411 927745004 -678343424#0"/>
    </vehicle>
    <vehicle id="veh73" type="car" depart="36.50">
        <route edges="-747995216#1 747995216#1 -148462086#1 -148462086#0 -389933122#6 -389933122#5 -389933122#4 -389933122#3 -389933122#2 -389933122#1 -389933122#0 535935820#0 535935820#1 -286375416#7 -286375416#6 -286375416#5 286375416#5"/>
    </vehicle>
    <vehicle id="veh74" type="car" depart="37.00">
        <route edges="-965152758 -965152757 -754240704 -1175380688 738434647#0 738434647#1 965152744 965152743#0 965152743#1 169359641#0 169359641#1 169359641#2 169359641#3 389933122#0 389933122#1 389933122#2 389933122#3 389933122#4 389933122#5 389933122#6"/>
    </vehicle>
    <vehicle id="veh75" type="car" depart="37.50">
        <route edges="286375718 -286375718 286375416#1 286375416#2 286375416#3 286375416#4 286375416#5 286375416#6 286375416#7 -535935820#1 -535935820#0 -169359641#3 -169359641#2 -169359641#1 -169359641#0 -965152743#1 -965152743#0 -965152744 -738434647#1 -738434647#0 1175380688 754240704 965152757 965152758 754240703#0 -754240703#0 -965152758"/>
    </vehicle>
    <vehicle id="veh76" type="car" depart="38.00">
        <route edges="-389933122#5 -389933122#4 535937546#0 957929109 825130075#2 -747995217#1"/>
    </vehicle>
    <vehicle id="veh77" type="car" depart="38.50">
        <route edges="-389934471 389934471 389934469 389934193#6 389934193#7 -1175380689#0 754481682 754481683#0 754481683#1 754481683#2 754481683#3 738434646 389943098 1175380688 754240704 965152757 965152758 754240703#0 389935994#0 389935994#1 389935994#2 389935994#3 747995210#0 747995210#1 -747995210#1"/>
    </vehicle>
    <vehicle id="veh78" type="car" depart="39.00">
        <route edges="-1378252903 -286375416#8 -535935820#1 -535935820#0 -169359641#3 -169359641#2 -169359641#1 -169359641#0 -1175380689#1 -389934193#7 -389934193#6 -389934193#5 -389934193#4 -389934193#3 -389934193#2 -389934193#1 -389934193#0 1206064607#2 -1145058116 -1145058115 1145058117#0 1145058117#1 -1378252918#1 1378252918#1"/>
    </vehicle>
    <vehicle id="veh79" type="car" depart="39.50">
        <route edges="389934469 389934193#6 389934193#7 -1175380689#0 754481682 754481683#0 754481683#1 754481683#2 754481683#3 738434646 389943098 1175380688 754240704 965152757 965152758 754240703#0 389935994#0 389935994#1 389935994#2 389935994#3 747995210#0 747995210#1"/>
    </vehicle>
    <vehicle id="veh80" type="car" depart="40.00">
        <route edges="895435633 747995215#0 -747995215#0 -895435633 -756206420 -738434647#0 1175380688 754240704 965152757 965152758 754240703#0 389935994#0 389935994#1 389935994#2 389935994#3 389935994#4 389935994#5 389935994#6 -389935994#6"/>
    </vehicle>
    <vehicle id="veh81" type="car" depart="40.50">
        <route edges="-536069245#0 -1206064607#3 -1206064607#2 389934193#0 389934193#1 389934193#2 389934193#3 389934193#4 389934193#5 389934193#6 389934193#7 1175380689#1 169359641#0 169359641#1 169359641#2 169359641#3 389933122#0 389933122#1"/>
    </vehicle>
    <vehicle id="veh82" type="car" depart="41.00">
        <route edges="-747995210#1 -747995210#0 -389935994#3 -389935994#2 -389935994#1 -389935994#0 -754240703#0 -965152758 -965152757 -754240704 -1175380688 -389943098 -738434646 -754481683#3 -754481683#2 -754481683#1 -754481683#0 -754481682 1175380689#0 -389934193#7 -389934193#6 -389934193#5 -1137585465 -1137585466#0 -888806189#1"/>
    </vehicle>
    <vehicle id="veh83" type="car" depart="41.50">
        <route edges="754240703#1 -754240703#1 -754240703#0 -965152758 -965152757 -754240704 -1175380688 738434647#0 756206420 895435633 747995215#0 -965152749 -965152750 -535937546#3 -535937546#2 535937546#2"/>
    </vehicle>
    <vehicle id="veh84" type="car" depart="42.00">
        <route edges="-797563396#2 -797563396#1 -797563396#0 -169359641#2 -169359641#1 -169359641#0 -1175380689#1 -1175380689#0 754481682 754481683#0 754481683#1 754481683#2 927744411"/>
    </vehicle>
    <vehicle id="veh85" type="car" depart="42.50">
        <route edges="169359641#3 -169359641#3 -169359641#2 -169359641#1 -169359641#0 -1175380689#1 -389934193#7 -389934193#6 -389934193#5 -1137585465 -1137585466#0 888806189#2 -888806189#2"/>
    </vehicle>
    <vehicle id="veh86" type="car" depart="43.00">
        <route edges="-389944259#1 -389944259#0 -754481683#1 -754481683#0 -754481682 1175380689#0 1175380689#1 169359641#0 169359641#1 169359641#2 169359641#3 389933122#0 389933122#1 389933122#2 389933122#3 389933122#4 798269696 798269714#0 -798269714#0 -798269696"/>
    </vehicle>
    <vehicle id="veh87" type="car" depart="43.50">
        <route edges="1189302973 -1189302973 -389933122#5"/>
    </vehicle>
    <vehicle id="veh88" type="car" depart="44.00">
        <route edges="-389934193#5 389934193#5 389934193#6 389934193#7 -1175380689#0 754481682 754481683#0 754481683#1 754481683#2 754481683#3 738434646 389943098 1175380688 754240704 965152757 965152758 754240703#0 389935994#0 389935994#1 389935994#2 389935994#3 747995210#0"/>
    </vehicle>
    <vehicle id="veh89" type="car" depart="44.50">
        <route edges="754481684#1 -754481684#1 -754481684#0 -747995215#1 -747995215#0 -895435633 -756206420 738434647#1 965152744 965152743#0 965152743#1 -1175380689#1 -389934193#7 -389934193#6 -389934193#5 -389934193#4 -389934193#3 -389934193#2 -389934193#1 -389934193#0 -389934192#6 -389934192#5 -389934192#4 -389934192#3 1309998212#0 1309998212#1 1309998213 -1309998213"/>
    </vehicle>
    <vehicle id="veh90" type="car" depart="45.00">
        <route edges="-389934192#5 389934192#5 389934192#6 389934193#0 389934193#1 389934193#2 389934193#3 389934193#4 389934193#5 389934193#6 389934193#7 1175380689#1 169359641#0 169359641#1 169359641#2 169359641#3 535935820#0 535935820#1 -286375416#7 -286375416#6 -286375416#5 -286375416#4 -286375416#3 965152738#0 965152738#1 -965152738#1"/>
    </vehicle>
    <vehicle id="veh91" type="car" depart="45.50">
        <route edges="536069245#1 -536069245#1 841658563#0 841658563#1 841658563#2 389934193#2 389934193#3 389934193#4 389934193#5 389934193#6 389934193#7 1175380689#1 169359641#0 169359641#1 169359641#2 169359641#3 389933122#0 389933122#1 389933122#2 389933122#3 389933122#4 389933122#5 389933122#6 389933122#7 957929338 -957929338"/>
    </vehicle>
    <vehicle id="veh92" type="car" depart="46.00">
        <route edges="389944259#1 -389944259#1 -389944259#0 754481683#2 754481683#3 738434646 389943098 1175380688 754240704 965152757 965152758 754240703#0 389935994#0 389935994#1 389935994#2 -747995210#6 -747995210#5"/>
    </vehicle>
    <vehicle id="veh93" type="car" depart="46.50">
        <route edges="389934193#1 -389934193#1 -389944434#1 -389944434#0"/>
    </vehicle>
    <vehicle id="veh94" type="car" depart="47.00">
        <route edges="678343091 -678343091 -389944259#4 -389944259#3 -389944259#2 -389944259#1 -389944259#0 754481683#2 754481683#3 738434646 389943098 1175380688 754240704 965152757 965152758 754240703#0 389935994#0 389935994#1 957927647"/>
    </vehicle>
    <vehicle id="veh95" type="car" depart="47.50">
        <route edges="286375416#2 286375416#3 286375416#4 286375416#5 286375416#6 286375416#7 -535935820#1 -535935820#0 -169359641#3 -169359641#2 -169359641#1 748016296 -748016296"/>
    </vehicle>
    <vehicle id="veh96" type="car" depart="48.00">
        <route edges="-757509934#2 1166376808 -148462086#4 -148462086#3 -148462086#2 -747995216#1 -747995217#2 -825130075#2 -825130075#1 -825130075#0 754481684#1"/>
    </vehicle>
    <vehicle id="veh97" type="car" depart="48.50">
        <route edges="389944016#1 389944016#2 389944016#3 389934193#3 389934193#4 389934193#5 389934193#6 389934193#7 -1175380689#0 754481682 754481683#0 754481683#1 389944259#0 389944259#1 389944259#2 678343421"/>
    </vehicle>
    <vehicle id="veh98" type="car" depart="49.00">
        <route edges="754240703#2 -754240703#2 -754240703#1 -754240703#0 -965152758 -965152757 -754240704 -1175380688 738434647#0 738434647#1 965152744 965152743#0 965152743#1 169359641#0 169359641#1 169359641#2 169359641#3 535935820#0 535935820#1 535935820#2 535935820#3 535935820#4 1378252900 -1378252900"/>
    </vehicle>
    <vehicle id="veh99" type="car" depart="49.50">
        <route edges="-1206064607#0 1206064607#0 1206064607#1 389934193#0 389934193#1 389934193#2 389934193#3 389934193#4 389934193#5 389934193#6 389934193#7 -389934193#7 -389934193#6"/>
    </vehicle>
    <vehicle id="veh100" type="car" depart="50.00">
        <route edges="-957099096 957099096 -286375416#4 1213251323#0 1213251323#1 -1378252911"/>
    </vehicle>
    <vehicle id="veh101" type="car" depart="50.50">
        <route edges="-389944013#1 -389944013#0 -888806189#2 1137585466#0 1137585465 389934193#5 389934193#6 389934193#7 1175380689#1 169359641#0 169359641#1 169359641#2 169359641#3 535935820#0 535935820#1 535935820#2 535935820#3 535935820#4"/>
    </vehicle>
    <vehicle id="veh102" type="car" depart="51.00">
        <route edges="389935994#3 -389935994#3 -389935994#2 -389935994#1 -389935994#0 -754240703#0 -965152758 -965152757 -754240704 -1175380688 738434647#0 756206420 895435633 747995215#0 -965152749 -965152750 -535937546#3 957928613"/>
    </vehicle>
    <vehicle id="veh103" type="car" depart="51.50">