<?xml version="1.0" encoding="UTF-8"?>

<!-- generated on 2026-03-16 00:36:23 by Eclipse SUMO netconvert Version 1.24.0
<netconvertConfiguration xmlns:xsi="http://www.w3.org/2001/XMLSchema-instance" xsi:noNamespaceSchemaLocation="http://sumo.dlr.de/xsd/netconvertConfiguration.xsd">

    <input>
        <node-files value="map_plain.nod.xml"/>
        <edge-files value="map_plain.edg.xml"/>
    </input>

    <output>
        <output-file value="map.net.xml"/>
    </output>

    <report>
        <no-warnings value="true"/>
    </report>

</netconvertConfiguration>
-->

<net version="1.20" junctionCornerDetail="5" limitTurnSpeed="5.50" xmlns:xsi="http://www.w3.org/2001/XMLSchema-instance" xsi:noNamespaceSchemaLocation="http://sumo.dlr.de/xsd/net_file.xsd">

    <location netOffset="-716957.53,-934460.60" convBoundary="0.00,0.00,4566.05,3990.00" origBoundary="76.970769,8.448574,77.030880,8.576337" projParameter="+proj=utm +zone=43 +ellps=WGS84 +datum=WGS84 +units=m +no_defs"/>

    <edge id=":10168276772_0" function="internal">
        <lane id=":10168276772_0_0" index="0" disallow="tram rail_urban rail rail_electric rail_fast ship container cable_car subway aircraft wheelchair scooter drone" speed="5.56" length="14.49" shape="1544.33,2613.91 1539.01,2627.38"/>
    </edge>
    <edge id=":10168276772_1" function="internal">
        <lane id=":10168276772_1_0" index="0" disallow="tram rail_urban rail rail_electric rail_fast ship container cable_car subway aircraft wheelchair scooter drone" speed="9.72" length="2.59" shape="1544.33,2613.91 1542.73,2615.95"/>
    </edge>
    <edge id=":10168276772_2" function="internal">
        <lane id=":10168276772_2_0" index="0" disallow="tram rail_urban rail rail_electric rail_fast ship container cable_car subway aircraft wheelchair scooter drone" speed="3.65" length="1.44" shape="1544.33,2613.91 1543.14,2614.73"/>
    </edge>
    <edge id=":10168276772_11" function="internal">
        <lane id=":10168276772_11_0" index="0" disallow="tram rail_urban rail rail_electric rail_fast ship container cable_car subway aircraft wheelchair scooter drone" speed="9.72" length="16.89" shape="1542.73,2615.95 1542.24,2616.57 1538.57,2617.99 1533.32,2618.18 1526.49,2617.13"/>
    </edge>
    <edge id=":10168276772_12" function="internal">
        <lane id=":10168276772_12_0" index="0" disallow="tram rail_urban rail rail_electric rail_fast ship container cable_car subway aircraft wheelchair scooter drone" speed="3.65" length="3.23" shape="1543.14,2614.73 1542.25,2614.81 1541.65,2614.14 1541.35,2612.73"/>
    </edge>
    <edge id=":10168276772_3" function="internal">
        <lane id=":10168276772_3_0" index="0" disallow="tram rail_urban rail rail_electric rail_fast ship container cable_car subway aircraft wheelchair scooter drone" speed="7.20" length="9.90" shape="1527.18,2614.01 1530.03,2614.29 1532.36,2613.78 1534.14,2612.48 1535.39,2610.38"/>
    </edge>
    <edge id=":10168276772_4" function="internal">
        <lane id=":10168276772_4_0" index="0" disallow="tram rail_urban rail rail_electric rail_fast ship container cable_car subway aircraft wheelchair scooter drone" speed="9.08" length="20.84" shape="1527.18,2614.01 1533.82,2616.13 1538.01,2619.07 1539.74,2622.82 1539.01,2627.38"/>
    </edge>
    <edge id=":10168276772_5" function="internal">
        <lane id=":10168276772_5_0" index="0" disallow="tram rail_urban rail rail_electric rail_fast ship container cable_car subway aircraft wheelchair scooter drone" speed="3.65" length="4.67" shape="1527.18,2614.01 1528.18,2615.04 1528.40,2615.91 1527.84,2616.61 1526.49,2617.13"/>
    </edge>
    <edge id=":10168276772_6" function="internal">
        <lane id=":10168276772_6_0" index="0" disallow="tram rail_urban rail rail_electric rail_fast ship container cable_car subway aircraft wheelchair scooter drone" speed="6.19" length="9.05" shape="1530.08,2623.86 1530.66,2621.39 1530.26,2619.44 1528.87,2618.02 1526.49,2617.13"/>
    </edge>
    <edge id=":10168276772_7" function="internal">
        <lane id=":10168276772_7_0" index="0" disallow="tram rail_urban rail rail_electric rail_fast ship container cable_car subway aircraft wheelchair scooter drone" speed="5.56" length="14.48" shape="1530.08,2623.86 1535.39,2610.38"/>
        <lane id=":10168276772_7_1" index="1" disallow="tram rail_urban rail rail_electric rail_fast ship container cable_car subway aircraft wheelchair scooter drone" speed="5.56" length="14.48" shape="1533.05,2625.03 1538.37,2611.56"/>
        <lane id=":10168276772_7_2" index="2" disallow="tram rail_urban rail rail_electric rail_fast ship container cable_car subway aircraft wheelchair scooter drone" speed="5.56" length="14.48" shape="1536.03,2626.21 1541.35,2612.73"/>
    </edge>
    <edge id=":10168276772_10" function="internal">
        <lane id=":10168276772_10_0" index="0" disallow="tram rail_urban rail rail_electric rail_fast ship container cable_car subway aircraft wheelchair scooter drone" speed="3.65" length="1.44" shape="1536.03,2626.21 1537.22,2625.38"/>
    </edge>
    <edge id=":10168276772_13" function="internal">
        <lane id=":10168276772_13_0" index="0" disallow="tram rail_urban rail rail_electric rail_fast ship container cable_car subway aircraft wheelchair scooter drone" speed="3.65" length="3.23" shape="1537.22,2625.38 1538.11,2625.31 1538.70,2625.97 1539.01,2627.38"/>
    </edge>
    <edge id=":10168276773_0" function="internal">
        <lane id=":10168276773_0_0" index="0" disallow="tram rail_urban rail rail_electric rail_fast ship container cable_car subway aircraft wheelchair scooter drone" speed="3.94" length="2.17" shape="1462.19,2512.91 1461.65,2513.10 1461.26,2513.42 1461.02,2513.86 1460.92,2514.44"/>
    </edge>
    <edge id=":10168276773_1" function="internal">
        <lane id=":10168276773_1_0" index="0" disallow="tram rail_urban rail rail_electric rail_fast ship container cable_car subway aircraft wheelchair scooter drone" speed="6.14" length="6.51" shape="1457.72,2514.37 1458.00,2512.65 1458.73,2511.31 1459.91,2510.35 1461.54,2509.77"/>
    </edge>
    <edge id=":10168276775_0" function="internal">
        <lane id=":10168276775_0_0" index="0" disallow="tram rail_urban rail rail_electric rail_fast ship container cable_car subway aircraft wheelchair scooter drone" speed="3.65" length="4.67" shape="1522.83,2499.70 1524.12,2500.35 1524.62,2501.09 1524.32,2501.94 1523.23,2502.88"/>
    </edge>
    <edge id=":10928627923_0" function="internal">
        <lane id=":10928627923_0_0" index="0" disallow="tram rail_urban rail rail_electric rail_fast ship container cable_car subway aircraft wheelchair scooter drone" speed="6.09" length="7.14" shape="737.91,2185.00 737.42,2186.86 736.46,2188.19 735.03,2188.99 733.11,2189.24"/>
    </edge>
    <edge id=":10928627923_1" function="internal">
        <lane id=":10928627923_1_0" index="0" disallow="tram rail_urban rail rail_electric rail_fast ship container cable_car subway aircraft wheelchair scooter drone" speed="3.91" length="2.38" shape="733.13,2186.04 733.77,2185.96 734.25,2185.69 734.57,2185.25 734.73,2184.63"/>
    </edge>
    <edge id=":10928627924_0" function="internal">
        <lane id=":10928627924_0_0" index="0" disallow="tram rail_urban rail rail_electric rail_fast ship container cable_car subway aircraft wheelchair scooter drone" speed="3.65" length="4.67" shape="567.65,2180.41 566.58,2179.45 566.30,2178.60 566.81,2177.87 568.11,2177.25"/>
    </edge>
    <edge id=":10936666419_0" function="internal">
        <lane id=":10936666419_0_0" index="0" disallow="tram rail_urban rail rail_electric rail_fast ship container cable_car subway aircraft wheelchair scooter drone" speed="27.78" length="8.32" shape="720.83,2720.68 714.38,2725.93"/>
        <lane id=":10936666419_0_1" index="1" disallow="tram rail_urban rail rail_electric rail_fast ship container cable_car subway aircraft wheelchair scooter drone" speed="27.78" length="8.32" shape="718.81,2718.20 712.36,2723.45"/>
        <lane id=":10936666419_0_2" index="2" disallow="tram rail_urban rail rail_electric rail_fast ship container cable_car subway aircraft wheelchair scooter drone" speed="27.78" length="8.32" shape="716.78,2715.72 710.33,2720.97"/>
    </edge>
    <edge id=":10936666419_3" function="internal">
        <lane id=":10936666419_3_0" index="0" disallow="tram rail_urban rail rail_electric rail_fast ship container cable_car subway aircraft wheelchair scooter drone" speed="12.48" length="9.38" shape="713.42,2713.58 713.29,2716.72 713.88,2719.15 713.97,2721.26 712.36,2723.45"/>
        <lane id=":10936666419_3_1" index="1" disallow="tram rail_urban rail rail_electric rail_fast ship container cable_car subway aircraft wheelchair scooter drone" speed="11.14" length="9.38" shape="713.42,2713.58 712.97,2716.02 712.68,2717.79 711.99,2719.30 710.33,2720.97"/>
    </edge>
    <edge id=":10936666422_0" function="internal">
        <lane id=":10936666422_0_0" index="0" disallow="tram rail_urban rail rail_electric rail_fast ship container cable_car subway aircraft wheelchair scooter drone" speed="5.54" length="11.29" shape="722.06,2694.15 719.52,2691.22 717.88,2690.56 717.14,2692.16 717.29,2696.04"/>
    </edge>
    <edge id=":10936666422_1" function="internal">
        <lane id=":10936666422_1_0" index="0" disallow="tram rail_urban rail rail_electric rail_fast ship container cable_car subway aircraft wheelchair scooter drone" speed="27.78" length="15.26" shape="722.06,2694.15 713.04,2681.85"/>
    </edge>
    <edge id=":10936666422_2" function="internal">
        <lane id=":10936666422_2_0" index="0" disallow="tram rail_urban rail rail_electric rail_fast ship container cable_car subway aircraft wheelchair scooter drone" speed="3.65" length="1.44" shape="722.06,2694.15 721.99,2692.71"/>
    </edge>
    <edge id=":10936666422_9" function="internal">
        <lane id=":10936666422_9_0" index="0" disallow="tram rail_urban rail rail_electric rail_fast ship container cable_car subway aircraft wheelchair scooter drone" speed="3.65" length="3.23" shape="721.99,2692.71 722.40,2691.92 723.29,2691.77 724.64,2692.26"/>
    </edge>
    <edge id=":10936666422_3" function="internal">
        <lane id=":10936666422_3_0" index="0" disallow="tram rail_urban rail rail_electric rail_fast ship container cable_car subway aircraft wheelchair scooter drone" speed="5.71" length="11.53" shape="726.78,2686.29 723.46,2685.66 722.00,2686.44 722.39,2688.64 724.64,2692.26"/>
    </edge>
    <edge id=":10936666422_4" function="internal">
        <lane id=":10936666422_4_0" index="0" disallow="tram rail_urban rail rail_electric rail_fast ship container cable_car subway aircraft wheelchair scooter drone" speed="7.77" length="17.65" shape="726.78,2686.29 722.03,2685.59 718.87,2686.98 717.29,2690.46 717.29,2696.04"/>
    </edge>
    <edge id=":10936666422_5" function="internal">
        <lane id=":10936666422_5_0" index="0" disallow="tram rail_urban rail rail_electric rail_fast ship container cable_car subway aircraft wheelchair scooter drone" speed="14.96" length="14.75" shape="726.78,2686.29 723.04,2685.53 719.23,2685.02 715.76,2684.03 713.04,2681.85"/>
    </edge>
    <edge id=":10936666422_6" function="internal">
        <lane id=":10936666422_6_0" index="0" disallow="tram rail_urban rail rail_electric rail_fast ship container cable_car subway aircraft wheelchair scooter drone" speed="27.78" length="15.25" shape="715.62,2679.96 724.64,2692.26"/>
    </edge>
    <edge id=":10936666422_7" function="internal">
        <lane id=":10936666422_7_0" index="0" disallow="tram rail_urban rail rail_electric rail_fast ship container cable_car subway aircraft wheelchair scooter drone" speed="19.02" length="2.97" shape="715.62,2679.96 716.73,2682.71"/>
    </edge>
    <edge id=":10936666422_8" function="internal">
        <lane id=":10936666422_8_0" index="0" disallow="tram rail_urban rail rail_electric rail_fast ship container cable_car subway aircraft wheelchair scooter drone" speed="3.65" length="1.44" shape="715.62,2679.96 715.68,2681.40"/>
    </edge>
    <edge id=":10936666422_10" function="internal">
        <lane id=":10936666422_10_0" index="0" disallow="tram rail_urban rail rail_electric rail_fast ship container cable_car subway aircraft wheelchair scooter drone" speed="19.02" length="13.40" shape="716.73,2682.71 717.04,2683.47 717.34,2687.65 717.19,2692.00 717.29,2696.04"/>
    </edge>
    <edge id=":10936666422_11" function="internal">
        <lane id=":10936666422_11_0" index="0" disallow="tram rail_urban rail rail_electric rail_fast ship container cable_car subway aircraft wheelchair scooter drone" speed="3.65" length="3.23" shape="715.68,2681.40 715.27,2682.20 714.39,2682.35 713.04,2681.85"/>
    </edge>
    <edge id=":10936666425_0" function="internal">
        <lane id=":10936666425_0_0" index="0" disallow="tram rail_urban rail rail_electric rail_fast ship container cable_car subway aircraft wheelchair scooter drone" speed="27.78" length="14.58" shape="762.24,2686.99 750.93,2696.18"/>
        <lane id=":10936666425_0_1" index="1" disallow="tram rail_urban rail rail_electric rail_fast ship container cable_car subway aircraft wheelchair scooter drone" speed="27.78" length="14.58" shape="760.22,2684.50 748.91,2693.70"/>
        <lane id=":10936666425_0_2" index="2" disallow="tram rail_urban rail rail_electric rail_fast ship container cable_car subway aircraft wheelchair scooter drone" speed="27.78" length="14.58" shape="758.21,2682.02 746.89,2691.21"/>
    </edge>
    <edge id=":10936666425_3" function="internal">
        <lane id=":10936666425_3_0" index="0" disallow="tram rail_urban rail rail_electric rail_fast ship container cable_car subway aircraft wheelchair scooter drone" speed="18.10" length="14.45" shape="758.21,2682.02 754.48,2684.50 751.27,2685.65 748.17,2686.12 744.77,2686.57"/>
    </edge>
    <edge id=":10936666446_0" function="internal">
        <lane id=":10936666446_0_0" index="0" allow="pedestrian delivery bicycle" speed="3.65" length="4.67" shape="971.92,2433.49 971.99,2432.05 972.47,2431.30 973.36,2431.23 974.66,2431.85"/>
    </edge>
    <edge id=":10936666447_0" function="internal">
        <lane id=":10936666447_0_0" index="0" disallow="tram rail_urban rail rail_electric rail_fast ship container cable_car subway aircraft wheelchair scooter drone" speed="27.78" length="9.43" shape="1011.46,2486.00 1003.87,2491.61"/>
        <lane id=":10936666447_0_1" index="1" disallow="tram rail_urban rail rail_electric rail_fast ship container cable_car subway aircraft wheelchair scooter drone" speed="27.78" length="9.43" shape="1009.56,2483.43 1001.97,2489.04"/>
        <lane id=":10936666447_0_2" index="2" disallow="tram rail_urban rail rail_electric rail_fast ship container cable_car subway aircraft wheelchair scooter drone" speed="27.78" length="9.43" shape="1007.65,2480.86 1000.07,2486.47"/>
    </edge>
    <edge id=":10936666447_3" function="internal">
        <lane id=":10936666447_3_0" index="0" allow="pedestrian delivery bicycle" speed="5.98" length="8.04" shape="1007.65,2480.86 1005.26,2482.35 1003.29,2482.98 1001.73,2482.74 1000.61,2481.63"/>
    </edge>
    <edge id=":10936666447_4" function="internal">
        <lane id=":10936666447_4_0" index="0" allow="pedestrian delivery bicycle" speed="7.13" length="10.21" shape="1003.35,2479.99 1004.51,2482.65 1004.67,2485.04 1003.82,2487.17 1001.97,2489.04"/>
        <lane id=":10936666447_4_1" index="1" allow="pedestrian delivery bicycle" speed="6.36" length="7.94" shape="1003.35,2479.99 1003.78,2481.45 1003.37,2483.02 1002.13,2484.69 1000.07,2486.47"/>
    </edge>
    <edge id=":10936666447_6" function="internal">
        <lane id=":10936666447_6_0" index="0" allow="pedestrian delivery bicycle" speed="3.65" length="4.67" shape="1003.35,2479.99 1003.28,2481.44 1002.80,2482.19 1001.91,2482.25 1000.61,2481.63"/>
    </edge>
    <edge id=":11080736311_0" function="internal">
        <lane id=":11080736311_0_0" index="0" disallow="tram rail_urban rail rail_electric rail_fast ship container cable_car subway aircraft wheelchair scooter drone" speed="27.78" length="11.82" shape="598.25,2526.99 591.59,2517.22"/>
    </edge>
    <edge id=":11080736311_1" function="internal">
        <lane id=":11080736311_1_0" index="0" disallow="tram rail_urban rail rail_electric rail_fast ship container cable_car subway aircraft wheelchair scooter drone" speed="7.42" length="2.88" shape="598.25,2526.99 597.14,2524.33"/>
    </edge>
    <edge id=":11080736311_2" function="internal">
        <lane id=":11080736311_2_0" index="0" disallow="tram rail_urban rail rail_electric rail_fast ship container cable_car subway aircraft wheelchair scooter drone" speed="3.65" length="1.44" shape="598.25,2526.99 598.23,2525.55"/>
    </edge>
    <edge id=":11080736311_9" function="internal">
        <lane id=":11080736311_9_0" index="0" disallow="tram rail_urban rail rail_electric rail_fast ship container cable_car subway aircraft wheelchair scooter drone" speed="7.42" length="9.77" shape="597.14,2524.33 597.50,2521.75 599.33,2519.26 602.62,2516.85"/>
    </edge>
    <edge id=":11080736311_10" function="internal">
        <lane id=":11080736311_10_0" index="0" disallow="tram rail_urban rail rail_electric rail_fast ship container cable_car subway aircraft wheelchair scooter drone" speed="3.65" length="3.23" shape="598.23,2525.55 598.67,2524.77 599.55,2524.65 600.89,2525.19"/>
    </edge>
    <edge id=":11080736311_3" function="internal">
        <lane id=":11080736311_3_0" index="0" disallow="tram rail_urban rail rail_electric rail_fast ship container cable_car subway aircraft wheelchair scooter drone" speed="5.27" length="5.85" shape="605.86,2522.37 604.64,2522.91 602.84,2523.66 601.31,2524.47 600.89,2525.19"/>
    </edge>
    <edge id=":11080736311_4" function="internal">
        <lane id=":11080736311_4_0" index="0" disallow="tram rail_urban rail rail_electric rail_fast ship container cable_car subway aircraft wheelchair scooter drone" speed="8.27" length="14.47" shape="604.24,2519.61 600.50,2521.20 597.14,2521.33 594.17,2520.00 591.59,2517.22"/>
    </edge>
    <edge id=":11080736311_5" function="internal">
        <lane id=":11080736311_5_0" index="0" disallow="tram rail_urban rail rail_electric rail_fast ship container cable_car subway aircraft wheelchair scooter drone" speed="3.65" length="4.67" shape="604.24,2519.61 602.80,2519.53 602.05,2519.04 601.99,2518.15 602.62,2516.85"/>
    </edge>
    <edge id=":11080736311_6" function="internal">
        <lane id=":11080736311_6_0" index="0" disallow="tram rail_urban rail rail_electric rail_fast ship container cable_car subway aircraft wheelchair scooter drone" speed="6.83" length="9.56" shape="594.24,2515.42 595.92,2517.21 597.88,2518.05 600.11,2517.93 602.62,2516.85"/>
    </edge>
    <edge id=":11080736311_7" function="internal">
        <lane id=":11080736311_7_0" index="0" disallow="tram rail_urban rail rail_electric rail_fast ship container cable_car subway aircraft wheelchair scooter drone" speed="27.78" length="11.82" shape="594.24,2515.42 600.89,2525.19"/>
    </edge>
    <edge id=":11080736311_8" function="internal">
        <lane id=":11080736311_8_0" index="0" disallow="tram rail_urban rail rail_electric rail_fast ship container cable_car subway aircraft wheelchair scooter drone" speed="3.65" length="1.44" shape="594.24,2515.42 594.25,2516.86"/>
    </edge>
    <edge id=":11080736311_11" function="internal">
        <lane id=":11080736311_11_0" index="0" disallow="tram rail_urban rail rail_electric rail_fast ship container cable_car subway aircraft wheelchair scooter drone" speed="3.65" length="3.23" shape="594.25,2516.86 593.81,2517.64 592.93,2517.76 591.59,2517.22"/>
    </edge>
    <edge id=":11080736317_0" function="internal">
        <lane id=":11080736317_0_0" index="0" disallow="tram rail_urban rail rail_electric rail_fast ship container cable_car subway aircraft wheelchair scooter drone" speed="8.29" length="13.18" shape="667.54,2430.65 667.45,2426.34 666.59,2423.07 664.95,2420.82 662.53,2419.61"/>
    </edge>
    <edge id=":11080736317_1" function="internal">
        <lane id=":11080736317_1_0" index="0" disallow="tram rail_urban rail rail_electric rail_fast ship container cable_car subway aircraft wheelchair scooter drone" speed="8.55" length="18.72" shape="667.54,2430.65 668.60,2425.20 670.96,2421.72 674.63,2420.21 679.61,2420.67"/>
    </edge>
    <edge id=":11080736317_2" function="internal">
        <lane id=":11080736317_2_0" index="0" disallow="tram rail_urban rail rail_electric rail_fast ship container cable_car subway aircraft wheelchair scooter drone" speed="3.73" length="4.99" shape="667.54,2430.65 667.99,2429.17 668.68,2428.51 669.62,2428.67 670.81,2429.64"/>
    </edge>
    <edge id=":11080736317_3" function="internal">
        <lane id=":11080736317_3_0" index="0" disallow="tram rail_urban rail rail_electric rail_fast ship container cable_car subway aircraft wheelchair scooter drone" speed="5.83" length="8.05" shape="678.81,2423.77 676.88,2423.65 675.45,2424.43 674.52,2426.09 674.08,2428.64"/>
    </edge>
    <edge id=":11080736317_4" function="internal">
        <lane id=":11080736317_4_0" index="0" disallow="tram rail_urban rail rail_electric rail_fast ship container cable_car subway aircraft wheelchair scooter drone" speed="13.89" length="16.81" shape="678.81,2423.77 662.53,2419.61"/>
    </edge>
    <edge id=":11080736317_5" function="internal">
        <lane id=":11080736317_5_0" index="0" disallow="tram rail_urban rail rail_electric rail_fast ship container cable_car subway aircraft wheelchair scooter drone" speed="3.65" length="1.44" shape="678.81,2423.77 677.85,2422.70"/>
    </edge>
    <edge id=":11080736317_9" function="internal">
        <lane id=":11080736317_9_0" index="0" disallow="tram rail_urban rail rail_electric rail_fast ship container cable_car subway aircraft wheelchair scooter drone" speed="3.65" length="3.23" shape="677.85,2422.70 677.66,2421.82 678.24,2421.15 679.61,2420.67"/>
    </edge>
    <edge id=":11080736317_6" function="internal">
        <lane id=":11080736317_6_0" index="0" disallow="tram rail_urban rail rail_electric rail_fast ship container cable_car subway aircraft wheelchair scooter drone" speed="13.89" length="17.22" shape="664.07,2413.40 669.33,2415.23 673.14,2417.34 676.31,2419.30 679.61,2420.67"/>
    </edge>
    <edge id=":11080736317_7" function="internal">
        <lane id=":11080736317_7_0" index="0" disallow="tram rail_urban rail rail_electric rail_fast ship container cable_car subway aircraft wheelchair scooter drone" speed="9.24" length="3.88" shape="663.30,2416.51 666.84,2418.09"/>
    </edge>
    <edge id=":11080736317_8" function="internal">
        <lane id=":11080736317_8_0" index="0" disallow="tram rail_urban rail rail_electric rail_fast ship container cable_car subway aircraft wheelchair scooter drone" speed="3.65" length="1.44" shape="663.30,2416.51 664.27,2417.57"/>
    </edge>
    <edge id=":11080736317_10" function="internal">
        <lane id=":11080736317_10_0" index="0" disallow="tram rail_urban rail rail_electric rail_fast ship container cable_car subway aircraft wheelchair scooter drone" speed="9.24" length="12.71" shape="666.84,2418.09 669.28,2420.81 670.60,2424.66 670.81,2429.64"/>
    </edge>
    <edge id=":11080736317_11" function="internal">
        <lane id=":11080736317_11_0" index="0" disallow="tram rail_urban rail rail_electric rail_fast ship container cable_car subway aircraft wheelchair scooter drone" speed="3.65" length="3.23" shape="664.27,2417.57 664.46,2418.44 663.88,2419.12 662.53,2419.61"/>
    </edge>
    <edge id=":11080736322_0" function="internal">
        <lane id=":11080736322_0_0" index="0" disallow="tram rail_urban rail rail_electric rail_fast ship container cable_car subway aircraft wheelchair scooter drone" speed="3.65" length="4.67" shape="578.38,2380.19 577.70,2378.93 577.72,2378.03 578.44,2377.51 579.88,2377.37"/>
    </edge>
    <edge id=":11092846096_0" function="internal">
        <lane id=":11092846096_0_0" index="0" disallow="tram rail_urban rail rail_electric rail_fast ship container cable_car subway aircraft wheelchair scooter drone" speed="13.89" length="0.10" shape="608.25,2186.33 608.17,2186.32"/>
    </edge>
    <edge id=":11092846096_1" function="internal">
        <lane id=":11092846096_1_0" index="0" disallow="tram rail_urban rail rail_electric rail_fast ship container cable_car subway aircraft wheelchair scooter drone" speed="13.89" length="0.10" shape="608.63,2183.16 608.55,2183.15"/>
    </edge>
    <edge id=":11092876469_0" function="internal">
        <lane id=":11092876469_0_0" index="0" disallow="tram rail_urban rail rail_electric rail_fast ship container cable_car subway aircraft wheelchair scooter drone" speed="13.89" length="15.09" shape="664.36,2190.62 660.59,2190.73 656.81,2190.71 653.03,2190.56 649.28,2190.28"/>
    </edge>
    <edge id=":11092876469_1" function="internal">
        <lane id=":11092876469_1_0" index="0" disallow="tram rail_urban rail rail_electric rail_fast ship container cable_car subway aircraft wheelchair scooter drone" speed="7.76" length="4.35" shape="664.36,2190.62 660.23,2190.22 660.05,2190.11"/>
    </edge>
    <edge id=":11092876469_2" function="internal">
        <lane id=":11092876469_2_0" index="0" disallow="tram rail_urban rail rail_electric rail_fast ship container cable_car subway aircraft wheelchair scooter drone" speed="3.65" length="1.44" shape="664.36,2190.62 663.12,2189.88"/>
    </edge>
    <edge id=":11092876469_9" function="internal">
        <lane id=":11092876469_9_0" index="0" disallow="tram rail_urban rail rail_electric rail_fast ship container cable_car subway aircraft wheelchair scooter drone" speed="7.76" length="10.45" shape="660.05,2190.11 657.43,2188.56 655.95,2185.66 655.79,2181.52"/>
    </edge>
    <edge id=":11092876469_10" function="internal">
        <lane id=":11092876469_10_0" index="0" disallow="tram rail_urban rail rail_electric rail_fast ship container cable_car subway aircraft wheelchair scooter drone" speed="3.65" length="3.23" shape="663.12,2189.88 662.69,2189.10 663.05,2188.28 664.21,2187.43"/>
    </edge>
    <edge id=":11092876469_3" function="internal">
        <lane id=":11092876469_3_0" index="0" disallow="tram rail_urban rail rail_electric rail_fast ship container cable_car subway aircraft wheelchair scooter drone" speed="6.21" length="9.05" shape="658.98,2181.86 659.07,2184.39 659.98,2186.17 661.69,2187.18 664.21,2187.43"/>
    </edge>
    <edge id=":11092876469_4" function="internal">
        <lane id=":11092876469_4_0" index="0" disallow="tram rail_urban rail rail_electric rail_fast ship container cable_car subway aircraft wheelchair scooter drone" speed="8.14" length="14.60" shape="658.98,2181.86 658.00,2185.86 656.06,2188.59 653.15,2190.06 649.28,2190.28"/>
    </edge>
    <edge id=":11092876469_5" function="internal">
        <lane id=":11092876469_5_0" index="0" disallow="tram rail_urban rail rail_electric rail_fast ship container cable_car subway aircraft wheelchair scooter drone" speed="3.65" length="4.67" shape="658.98,2181.86 658.05,2182.97 657.22,2183.28 656.46,2182.80 655.79,2181.52"/>
    </edge>
    <edge id=":11092876469_6" function="internal">
        <lane id=":11092876469_6_0" index="0" disallow="tram rail_urban rail rail_electric rail_fast ship container cable_car subway aircraft wheelchair scooter drone" speed="6.67" length="9.48" shape="649.59,2187.09 652.06,2186.94 653.92,2185.97 655.16,2184.16 655.79,2181.52"/>
    </edge>
    <edge id=":11092876469_7" function="internal">
        <lane id=":11092876469_7_0" index="0" disallow="tram rail_urban rail rail_electric rail_fast ship container cable_car subway aircraft wheelchair scooter drone" speed="13.89" length="14.64" shape="649.59,2187.09 653.27,2187.38 656.89,2187.52 660.52,2187.54 664.21,2187.43"/>
    </edge>
    <edge id=":11092876469_8" function="internal">
        <lane id=":11092876469_8_0" index="0" disallow="tram rail_urban rail rail_electric rail_fast ship container cable_car subway aircraft wheelchair scooter drone" speed="3.65" length="1.44" shape="649.59,2187.09 650.71,2188.00"/>
    </edge>
    <edge id=":11092876469_11" function="internal">
        <lane id=":11092876469_11_0" index="0" disallow="tram rail_urban rail rail_electric rail_fast ship container cable_car subway aircraft wheelchair scooter drone" speed="3.65" length="3.23" shape="650.71,2188.00 651.03,2188.84 650.55,2189.60 649.28,2190.28"/>
    </edge>
    <edge id=":11093426364_0" function="internal">
        <lane id=":11093426364_0_0" index="0" allow="pedestrian delivery bicycle" speed="3.65" length="4.67" shape="1023.19,2622.70 1024.50,2623.29 1025.03,2624.02 1024.77,2624.87 1023.71,2625.86"/>
    </edge>
    <edge id=":11219230698_0" function="internal">
        <lane id=":11219230698_0_0" index="0" disallow="tram rail_urban rail rail_electric rail_fast ship container cable_car subway aircraft wheelchair scooter drone" speed="3.65" length="4.67" shape="226.05,2115.45 225.91,2114.02 226.28,2113.20 227.15,2113.00 228.53,2113.43"/>
    </edge>
    <edge id=":11220325327_0" function="internal">
        <lane id=":11220325327_0_0" index="0" disallow="tram rail_urban rail rail_electric rail_fast ship container cable_car subway aircraft wheelchair scooter drone" speed="3.65" length="4.67" shape="1157.48,2878.28 1157.67,2879.71 1157.34,2880.54 1156.48,2880.77 1155.08,2880.40"/>
    </edge>
    <edge id=":11221812697_0" function="internal">
        <lane id=":11221812697_0_0" index="0" allow="pedestrian delivery bicycle" speed="5.00" length="5.04" shape="813.02,2357.45 812.65,2356.11 811.94,2355.22 810.90,2354.79 809.51,2354.81"/>
    </edge>
    <edge id=":11221812697_1" function="internal">
        <lane id=":11221812697_1_0" index="0" allow="pedestrian delivery bicycle" speed="5.56" length="10.13" shape="813.02,2357.45 813.05,2354.63 813.92,2352.47 815.63,2350.95 818.18,2350.09"/>
    </edge>