<?xml version="1.0" encoding="UTF-8"?>

<!-- generated on 2026-03-15 23:16:59 by Eclipse SUMO netconvert Version 1.24.0
<netconvertConfiguration xmlns:xsi="http://www.w3.org/2001/XMLSchema-instance" xsi:noNamespaceSchemaLocation="http://sumo.dlr.de/xsd/netconvertConfiguration.xsd">

    <input>
        <sumo-net-file value="map.net.xml"/>
    </input>

    <output>
        <plain-output-prefix value="map_plain"/>
    </output>

    <processing>
        <geometry.min-radius.fix.railways value="false"/>
        <geometry.avoid-overlap value="false"/>
        <geometry.max-grade.fix value="false"/>
        <offset.disable-normalization value="true"/>
        <lefthand value="0"/>
    </processing>

    <junctions>
        <no-turnarounds value="true"/>
        <junctions.corner-detail value="5"/>
        <junctions.limit-turn-speed value="5.50"/>
        <rectangular-lane-cut value="0"/>
    </junctions>

    <pedestrian>
        <walkingareas value="0"/>
    </pedestrian>

</netconvertConfiguration>
-->

<connections version="1.20" xmlns:xsi="http://www.w3.org/2001/XMLSchema-instance" xsi:noNamespaceSchemaLocation="http://sumo.dlr.de/xsd/connections_file.xsd">
    <connection from="-1047765851" to="1047765851" fromLane="0" toLane="0"/>

    <connection from="-1047765852#0" to="1047765852#0" fromLane="0" toLane="0"/>

    <connection from="-1047765852#1" to="802000252#5" fromLane="0" toLane="0"/>
    <connection from="-1047765852#1" to="-1047765852#0" fromLane="0" toLane="0"/>
    <connection from="-1047765852#1" to="-802000252#4" fromLane="0" toLane="0"/>
    <connection from="-1047765852#1" to="1047765852#1" fromLane="0" toLane="0"/>

    <connection from="-1111261524" to="805333889" fromLane="0" toLane="0"/>

    <connection from="-1177215282" to="1364681849#3" fromLane="0" toLane="1"/>
    <connection from="-1177215282" to="1364681849#3" fromLane="0" toLane="2"/>
    <connection from="-1177215282" to="1177215282" fromLane="0" toLane="0"/>

    <connection from="-1193733759#0" to="1210908131#2" fromLane="0" toLane="0"/>
    <connection from="-1193733759#0" to="-1210908131#1" fromLane="0" toLane="0"/>
    <connection from="-1193733759#0" to="1193733759#0" fromLane="0" toLane="0"/>

    <connection from="-1193733759#1" to="1305162884" fromLane="0" toLane="0"/>
    <connection from="-1193733759#1" to="-1193733759#0" fromLane="0" toLane="0"/>
    <connection from="-1193733759#1" to="1193733759#1" fromLane="0" toLane="0"/>

    <connection from="-1193733759#2" to="1305162883" fromLane="0" toLane="0"/>
    <connection from="-1193733759#2" to="-1193733759#1" fromLane="0" toLane="0"/>
    <connection from="-1193733759#2" to="1193733759#2" fromLane="0" toLane="0"/>

    <connection from="-1193733759#3" to="-1193733759#2" fromLane="0" toLane="0"/>
    <connection from="-1193733759#3" to="-1305162882" fromLane="0" toLane="0"/>
    <connection from="-1193733759#3" to="1193733759#3" fromLane="0" toLane="0"/>

    <connection from="-1195176490" to="-1262877731#1" fromLane="0" toLane="0"/>
    <connection from="-1195176490" to="1262877731#2" fromLane="0" toLane="0"/>
    <connection from="-1195176490" to="1195176490" fromLane="0" toLane="0"/>

    <connection from="-1195176494" to="1262877731#0" fromLane="0" toLane="0"/>

    <connection from="-1195238755" to="-745527903" fromLane="0" toLane="0"/>

    <connection from="-1195269934" to="1195269934" fromLane="0" toLane="0"/>

    <connection from="-1210908131#0" to="1210908131#0" fromLane="0" toLane="0"/>

    <connection from="-1210908131#1" to="-1210908131#0" fromLane="0" toLane="0"/>
    <connection from="-1210908131#1" to="1305162881#0" fromLane="0" toLane="0"/>
    <connection from="-1210908131#1" to="1210908131#1" fromLane="0" toLane="0"/>

    <connection from="-1210908131#2" to="-1210908131#1" fromLane="0" toLane="0"/>
    <connection from="-1210908131#2" to="1193733759#0" fromLane="0" toLane="0"/>
    <connection from="-1210908131#2" to="1210908131#2" fromLane="0" toLane="0"/>

    <connection from="-1210908131#3" to="744796384" fromLane="0" toLane="0"/>
    <connection from="-1210908131#3" to="-1210908131#2" fromLane="0" toLane="0"/>
    <connection from="-1210908131#3" to="1210908131#3" fromLane="0" toLane="0"/>

    <connection from="-1210908131#4" to="1177215276" fromLane="0" toLane="0"/>
    <connection from="-1210908131#4" to="-1210908131#3" fromLane="0" toLane="0"/>
    <connection from="-1210908131#4" to="1210908131#4" fromLane="0" toLane="0"/>

    <connection from="-1211177868" to="-649120019#2" fromLane="0" toLane="0"/>
    <connection from="-1211177868" to="649120019#3" fromLane="0" toLane="0"/>
    <connection from="-1211177868" to="1211177868" fromLane="0" toLane="0"/>

    <connection from="-1211179298" to="-805333888#0" fromLane="0" toLane="0"/>
    <connection from="-1211179298" to="805333888#1" fromLane="0" toLane="0"/>
    <connection from="-1211179298" to="1211179298" fromLane="0" toLane="0"/>

    <connection from="-1211179299" to="-805333888#1" fromLane="0" toLane="0"/>
    <connection from="-1211179299" to="805333888#2" fromLane="0" toLane="0"/>
    <connection from="-1211179299" to="1211179299" fromLane="0" toLane="0"/>

    <connection from="-1211182611" to="1211182611" fromLane="0" toLane="0"/>

    <connection from="-1211187479" to="802794952" fromLane="0" toLane="0"/>

    <connection from="-1211206496" to="-744238099#3" fromLane="0" toLane="0"/>
    <connection from="-1211206496" to="744238099#4" fromLane="0" toLane="0"/>
    <connection from="-1211206496" to="1211206496" fromLane="0" toLane="0"/>

    <connection from="-1211218242" to="749999919#1" fromLane="0" toLane="0"/>
    <connection from="-1211218242" to="-749999919#0" fromLane="0" toLane="0"/>
    <connection from="-1211218242" to="1211218242" fromLane="0" toLane="0"/>

    <connection from="-1211218982" to="763017695#1" fromLane="0" toLane="0"/>
    <connection from="-1211218982" to="-763017695#0" fromLane="0" toLane="0"/>
    <connection from="-1211218982" to="1211218982" fromLane="0" toLane="0"/>

    <connection from="-1262877731#0" to="1195176494" fromLane="0" toLane="0"/>

    <connection from="-1262877731#1" to="-802794946#1" fromLane="0" toLane="0"/>
    <connection from="-1262877731#1" to="-1262877731#0" fromLane="0" toLane="0"/>
    <connection from="-1262877731#1" to="1262877731#1" fromLane="0" toLane="0"/>

    <connection from="-1262877731#2" to="1195176490" fromLane="0" toLane="0"/>
    <connection from="-1262877731#2" to="-1262877731#1" fromLane="0" toLane="0"/>
    <connection from="-1262877731#2" to="1262877731#2" fromLane="0" toLane="0"/>

    <connection from="-1262877732" to="-1262877731#2" fromLane="0" toLane="0"/>

    <connection from="-1266707781" to="1364681849#6" fromLane="0" toLane="0"/>
    <connection from="-1266707781" to="-1210908131#4" fromLane="0" toLane="0"/>
    <connection from="-1266707781" to="1266707781" fromLane="0" toLane="0"/>

    <connection from="-1305162881#0" to="1210908131#1" fromLane="0" toLane="0"/>
    <connection from="-1305162881#0" to="-1210908131#0" fromLane="0" toLane="0"/>
    <connection from="-1305162881#0" to="1305162881#0" fromLane="0" toLane="0"/>

    <connection from="-1305162881#1" to="-1305162881#0" fromLane="0" toLane="0"/>
    <connection from="-1305162881#1" to="1305162882" fromLane="0" toLane="0"/>
    <connection from="-1305162881#1" to="1305162881#1" fromLane="0" toLane="0"/>

    <connection from="-1305162882" to="1305162881#1" fromLane="0" toLane="0"/>
    <connection from="-1305162882" to="-1305162881#0" fromLane="0" toLane="0"/>
    <connection from="-1305162882" to="1305162882" fromLane="0" toLane="0"/>

    <connection from="-1305162883" to="-1193733759#1" fromLane="0" toLane="0"/>
    <connection from="-1305162883" to="1193733759#2" fromLane="0" toLane="0"/>
    <connection from="-1305162883" to="1305162883" fromLane="0" toLane="0"/>

    <connection from="-1305162884" to="-1193733759#0" fromLane="0" toLane="0"/>
    <connection from="-1305162884" to="1193733759#1" fromLane="0" toLane="0"/>
    <connection from="-1305162884" to="1305162884" fromLane="0" toLane="0"/>

    <connection from="-1305162885" to="749959413#4" fromLane="0" toLane="0"/>
    <connection from="-1305162885" to="-749959413#3" fromLane="0" toLane="0"/>
    <connection from="-1305162885" to="1305162885" fromLane="0" toLane="0"/>

    <connection from="-1305162886" to="749959413#3" fromLane="0" toLane="0"/>
    <connection from="-1305162886" to="-749959413#2" fromLane="0" toLane="0"/>
    <connection from="-1305162886" to="1305162886" fromLane="0" toLane="0"/>

    <connection from="-1366734423" to="805971869#1" fromLane="0" toLane="0"/>
    <connection from="-1366734423" to="-805333882" fromLane="0" toLane="0"/>
    <connection from="-1366734423" to="-805971869#0" fromLane="0" toLane="0"/>
    <connection from="-1366734423" to="1366734423" fromLane="0" toLane="0"/>

    <connection from="-159463136#0" to="159463136#0" fromLane="0" toLane="0"/>

    <connection from="-159463136#1" to="-1195269934" fromLane="0" toLane="0"/>
    <connection from="-159463136#1" to="-159463136#0" fromLane="0" toLane="0"/>
    <connection from="-159463136#1" to="159463136#1" fromLane="0" toLane="0"/>

    <connection from="-159463136#2" to="-159463136#1" fromLane="0" toLane="0"/>
    <connection from="-159463136#2" to="804889484" fromLane="0" toLane="0"/>
    <connection from="-159463136#2" to="159463136#2" fromLane="0" toLane="0"/>

    <connection from="-450752220#0" to="450752220#0" fromLane="0" toLane="0"/>

    <connection from="-450752220#1" to="-802794950" fromLane="0" toLane="0"/>
    <connection from="-450752220#1" to="-450752220#0" fromLane="0" toLane="0"/>
    <connection from="-450752220#1" to="450752220#1" fromLane="0" toLane="0"/>

    <connection from="-450752220#2" to="-450752220#1" fromLane="0" toLane="0"/>
    <connection from="-450752220#2" to="802794959" fromLane="0" toLane="0"/>
    <connection from="-450752220#2" to="450752220#2" fromLane="0" toLane="0"/>

    <connection from="-450752220#3" to="746528092#0" fromLane="0" toLane="0"/>
    <connection from="-450752220#3" to="-450752220#2" fromLane="0" toLane="0"/>
    <connection from="-450752220#3" to="450752220#3" fromLane="0" toLane="0"/>

    <connection from="-548373963#0" to="548373963#0" fromLane="0" toLane="0"/>

    <connection from="-548373963#1" to="-548373963#0" fromLane="0" toLane="0"/>
    <connection from="-548373963#1" to="-805971869#3" fromLane="0" toLane="0"/>
    <connection from="-548373963#1" to="548373963#1" fromLane="0" toLane="0"/>

    <connection from="-548373963#2" to="-548373963#1" fromLane="0" toLane="0"/>
    <connection from="-548373963#2" to="800108283" fromLane="0" toLane="0"/>
    <connection from="-548373963#2" to="548373963#2" fromLane="0" toLane="0"/>

    <connection from="-548373963#3" to="-548373963#2" fromLane="0" toLane="0"/>
    <connection from="-548373963#3" to="800108282" fromLane="0" toLane="0"/>
    <connection from="-548373963#3" to="548373963#3" fromLane="0" toLane="0"/>

    <connection from="-548373963#4" to="-763017695#1" fromLane="0" toLane="0"/>
    <connection from="-548373963#4" to="-548373963#3" fromLane="0" toLane="0"/>
    <connection from="-548373963#4" to="548373963#4" fromLane="0" toLane="0"/>

    <connection from="-548373963#5" to="-548373963#4" fromLane="0" toLane="0"/>
    <connection from="-548373963#5" to="800108281" fromLane="0" toLane="0"/>
    <connection from="-548373963#5" to="548373963#5" fromLane="0" toLane="0"/>

    <connection from="-548373963#6" to="-548373963#5" fromLane="0" toLane="0"/>
    <connection from="-548373963#6" to="749999921#0" fromLane="0" toLane="0"/>
    <connection from="-548373963#6" to="548373963#6" fromLane="0" toLane="0"/>

    <connection from="-649120019#0" to="548373950#3" fromLane="0" toLane="1"/>
    <connection from="-649120019#0" to="548373950#3" fromLane="0" toLane="2"/>
    <connection from="-649120019#0" to="649120019#0" fromLane="0" toLane="0"/>

    <connection from="-649120019#1" to="750006607" fromLane="0" toLane="0"/>
    <connection from="-649120019#1" to="-649120019#0" fromLane="0" toLane="0"/>
    <connection from="-649120019#1" to="649120019#1" fromLane="0" toLane="0"/>

    <connection from="-649120019#2" to="-804889483" fromLane="0" toLane="0"/>
    <connection from="-649120019#2" to="-649120019#1" fromLane="0" toLane="0"/>
    <connection from="-649120019#2" to="649120019#2" fromLane="0" toLane="0"/>

    <connection from="-649120019#3" to="1211177868" fromLane="0" toLane="0"/>
    <connection from="-649120019#3" to="-649120019#2" fromLane="0" toLane="0"/>
    <connection from="-649120019#3" to="649120019#3" fromLane="0" toLane="0"/>

    <connection from="-649943775" to="548373950#1" fromLane="0" toLane="1"/>
    <connection from="-649943775" to="548373950#1" fromLane="0" toLane="2"/>
    <connection from="-649943775" to="649943775" fromLane="0" toLane="0"/>

    <connection from="-742734989" to="-805971869#2" fromLane="0" toLane="0"/>
    <connection from="-742734989" to="805971869#3" fromLane="0" toLane="0"/>
    <connection from="-742734989" to="742734989" fromLane="0" toLane="0"/>

    <connection from="-744238099#0" to="-744238100" fromLane="0" toLane="0"/>

    <connection from="-744238099#1" to="847576202" fromLane="0" toLane="0"/>
    <connection from="-744238099#1" to="-744238099#0" fromLane="0" toLane="0"/>

    <connection from="-744238099#2" to="-1047765851" fromLane="0" toLane="0"/>
    <connection from="-744238099#2" to="-744238099#1" fromLane="0" toLane="0"/>

    <connection from="-744238099#3" to="-1211206496" fromLane="0" toLane="0"/>
    <connection from="-744238099#3" to="-744238099#2" fromLane="0" toLane="0"/>

    <connection from="-744238099#4" to="1211206496" fromLane="0" toLane="0"/>
    <connection from="-744238099#4" to="-744238099#3" fromLane="0" toLane="0"/>

    <connection from="-744238099#5" to="548373950#6" fromLane="0" toLane="0"/>
    <connection from="-744238099#5" to="-744238099#4" fromLane="0" toLane="0"/>
    <connection from="-744238099#5" to="744238099#5" fromLane="0" toLane="0"/>

    <connection from="-744238100" to="-159463136#2" fromLane="0" toLane="0"/>

    <connection from="-744240848#0" to="744240848#0" fromLane="0" toLane="0"/>

    <connection from="-744240848#1" to="-744240848#0" fromLane="0" toLane="0"/>
    <connection from="-744240848#1" to="-749959413#4" fromLane="0" toLane="0"/>
    <connection from="-744240848#1" to="744240848#1" fromLane="0" toLane="0"/>

    <connection from="-744528054#0" to="901028067#1" fromLane="0" toLane="1"/>
    <connection from="-744528054#0" to="901028067#1" fromLane="0" toLane="2"/>
    <connection from="-744528054#0" to="744528054#0" fromLane="0" toLane="0"/>

    <connection from="-744528054#1" to="-744528054#0" fromLane="0" toLane="0"/>
    <connection from="-744528054#1" to="-750356550" fromLane="0" toLane="0"/>
    <connection from="-744528054#1" to="744528054#1" fromLane="0" toLane="0"/>

    <connection from="-744796384" to="-1210908131#2" fromLane="0" toLane="0"/>
    <connection from="-744796384" to="1210908131#3" fromLane="0" toLane="0"/>
    <connection from="-744796384" to="744796384" fromLane="0" toLane="0"/>

    <connection from="-745527903" to="745527904#1" fromLane="0" toLane="0"/>
    <connection from="-745527903" to="-745527904#0" fromLane="0" toLane="0"/>
    <connection from="-745527903" to="745527903" fromLane="0" toLane="0"/>

    <connection from="-745527904#0" to="548373950#5" fromLane="0" toLane="1"/>
    <connection from="-745527904#0" to="548373950#5" fromLane="0" toLane="2"/>
    <connection from="-745527904#0" to="745527904#0" fromLane="0" toLane="0"/>

    <connection from="-745527904#1" to="-745527904#0" fromLane="0" toLane="0"/>
    <connection from="-745527904#1" to="745527903" fromLane="0" toLane="0"/>

    <connection from="-746528091" to="746528091" fromLane="0" toLane="0"/>

    <connection from="-746528092#0" to="-450752220#2" fromLane="0" toLane="0"/>
    <connection from="-746528092#0" to="450752220#3" fromLane="0" toLane="0"/>
    <connection from="-746528092#0" to="746528092#0" fromLane="0" toLane="0"/>

    <connection from="-746528092#1" to="-746528091" fromLane="0" toLane="0"/>
    <connection from="-746528092#1" to="-746528092#0" fromLane="0" toLane="0"/>
    <connection from="-746528092#1" to="746528092#1" fromLane="0" toLane="0"/>

    <connection from="-746528092#2" to="749959413#1" fromLane="0" toLane="0"/>
    <connection from="-746528092#2" to="-749959413#0" fromLane="0" toLane="0"/>
    <connection from="-746528092#2" to="-746528092#1" fromLane="0" toLane="0"/>
    <connection from="-746528092#2" to="746528092#2" fromLane="0" toLane="0"/>

    <connection from="-746528092#3" to="802794953" fromLane="0" toLane="0"/>
    <connection from="-746528092#3" to="-746528092#2" fromLane="0" toLane="0"/>
    <connection from="-746528092#3" to="-1211187479" fromLane="0" toLane="0"/>
    <connection from="-746528092#3" to="746528092#3" fromLane="0" toLane="0"/>

    <connection from="-749702421" to="-802000252#3" fromLane="0" toLane="0"/>
    <connection from="-749702421" to="802000252#4" fromLane="0" toLane="0"/>
    <connection from="-749702421" to="749702421" fromLane="0" toLane="0"/>

    <connection from="-749959413#0" to="749959413#0" fromLane="0" toLane="0"/>

    <connection from="-749959413#1" to="-749959413#0" fromLane="0" toLane="0"/>
    <connection from="-749959413#1" to="-746528092#1" fromLane="0" toLane="0"/>
    <connection from="-749959413#1" to="746528092#2" fromLane="0" toLane="0"/>
    <connection from="-749959413#1" to="749959413#1" fromLane="0" toLane="0"/>

    <connection from="-749959413#2" to="802794949" fromLane="0" toLane="0"/>
    <connection from="-749959413#2" to="-749959413#1" fromLane="0" toLane="0"/>
    <connection from="-749959413#2" to="749959413#2" fromLane="0" toLane="0"/>

    <connection from="-749959413#3" to="-749959413#2" fromLane="0" toLane="0"/>
    <connection from="-749959413#3" to="1305162886" fromLane="0" toLane="0"/>
    <connection from="-749959413#3" to="749959413#3" fromLane="0" toLane="0"/>

    <connection from="-749959413#4" to="-749959413#3" fromLane="0" toLane="0"/>
    <connection from="-749959413#4" to="1305162885" fromLane="0" toLane="0"/>
    <connection from="-749959413#4" to="749959413#4" fromLane="0" toLane="0"/>

    <connection from="-749999919#0" to="749999920#1" fromLane="0" toLane="0"/>
    <connection from="-749999919#0" to="-749999920#0" fromLane="0" toLane="0"/>
    <connection from="-749999919#0" to="749999919#0" fromLane="0" toLane="0"/>

    <connection from="-749999919#1" to="-749999919#0" fromLane="0" toLane="0"/>
    <connection from="-749999919#1" to="1211218242" fromLane="0" toLane="0"/>
    <connection from="-749999919#1" to="749999919#1" fromLane="0" toLane="0"/>

    <connection from="-749999920#0" to="749999921#1" fromLane="0" toLane="0"/>
    <connection from="-749999920#0" to="-749999921#0" fromLane="0" toLane="0"/>
    <connection from="-749999920#0" to="749999920#0" fromLane="0" toLane="0"/>

    <connection from="-749999920#1" to="-749999920#0" fromLane="0" toLane="0"/>
    <connection from="-749999920#1" to="749999919#0" fromLane="0" toLane="0"/>
    <connection from="-749999920#1" to="749999920#1" fromLane="0" toLane="0"/>

    <connection from="-749999921#0" to="548373963#6" fromLane="0" toLane="0"/>
    <connection from="-749999921#0" to="-548373963#5" fromLane="0" toLane="0"/>
    <connection from="-749999921#0" to="749999921#0" fromLane="0" toLane="0"/>

    <connection from="-749999921#1" to="-749999921#0" fromLane="0" toLane="0"/>
    <connection from="-749999921#1" to="749999920#0" fromLane="0" toLane="0"/>
    <connection from="-749999921#1" to="749999921#1" fromLane="0" toLane="0"/>

    <connection from="-750006607" to="-649120019#0" fromLane="0" toLane="0"/>
    <connection from="-750006607" to="649120019#1" fromLane="0" toLane="0"/>
    <connection from="-750006607" to="750006607" fromLane="0" toLane="0"/>

    <connection from="-750356550" to="801397525" fromLane="0" toLane="0"/>
    <connection from="-750356550" to="-801397524" fromLane="0" toLane="0"/>
    <connection from="-750356550" to="750356550" fromLane="0" toLane="0"/>

    <connection from="-763017695#0" to="1364681848#3" fromLane="0" toLane="1"/>
    <connection from="-763017695#0" to="1364681848#3" fromLane="0" toLane="2"/>
    <connection from="-763017695#0" to="763017695#0" fromLane="0" toLane="0"/>

    <connection from="-763017695#1" to="-763017695#0" fromLane="0" toLane="0"/>
    <connection from="-763017695#1" to="1211218982" fromLane="0" toLane="0"/>
    <connection from="-763017695#1" to="763017695#1" fromLane="0" toLane="0"/>

    <connection from="-800108281" to="548373963#5" fromLane="0" toLane="0"/>
    <connection from="-800108281" to="-548373963#4" fromLane="0" toLane="0"/>
    <connection from="-800108281" to="800108281" fromLane="0" toLane="0"/>

    <connection from="-800108282" to="548373963#3" fromLane="0" toLane="0"/>
    <connection from="-800108282" to="-548373963#2" fromLane="0" toLane="0"/>
    <connection from="-800108282" to="800108282" fromLane="0" toLane="0"/>

    <connection from="-800108283" to="548373963#2" fromLane="0" toLane="0"/>
    <connection from="-800108283" to="-548373963#1" fromLane="0" toLane="0"/>
    <connection from="-800108283" to="800108283" fromLane="0" toLane="0"/>

    <connection from="-800530318" to="800530318" fromLane="0" toLane="0"/>

    <connection from="-801397524" to="802000252#3" fromLane="0" toLane="0"/>
    <connection from="-801397524" to="-802000252#2" fromLane="0" toLane="0"/>
    <connection from="-801397524" to="801397524" fromLane="0" toLane="0"/>

    <connection from="-801397525" to="-801397524" fromLane="0" toLane="0"/>
    <connection from="-801397525" to="750356550" fromLane="0" toLane="0"/>
    <connection from="-801397525" to="801397525" fromLane="0" toLane="0"/>

    <connection from="-802000252#0" to="-450752220#3" fromLane="0" toLane="0"/>

    <connection from="-802000252#1" to="-802794952" fromLane="0" toLane="0"/>
    <connection from="-802000252#1" to="-802000252#0" fromLane="0" toLane="0"/>
    <connection from="-802000252#1" to="802000252#1" fromLane="0" toLane="0"/>

    <connection from="-802000252#2" to="-746528092#3" fromLane="0" toLane="0"/>
    <connection from="-802000252#2" to="-802000252#1" fromLane="0" toLane="0"/>
    <connection from="-802000252#2" to="802000252#2" fromLane="0" toLane="0"/>

    <connection from="-802000252#3" to="-802000252#2" fromLane="0" toLane="0"/>
    <connection from="-802000252#3" to="801397524" fromLane="0" toLane="0"/>
    <connection from="-802000252#3" to="802000252#3" fromLane="0" toLane="0"/>

    <connection from="-802000252#4" to="749702421" fromLane="0" toLane="0"/>
    <connection from="-802000252#4" to="-802000252#3" fromLane="0" toLane="0"/>
    <connection from="-802000252#4" to="802000252#4" fromLane="0" toLane="0"/>

    <connection from="-802000252#5" to="-1047765852#0" fromLane="0" toLane="0"/>
    <connection from="-802000252#5" to="-802000252#4" fromLane="0" toLane="0"/>
    <connection from="-802000252#5" to="1047765852#1" fromLane="0" toLane="0"/>
    <connection from="-802000252#5" to="802000252#5" fromLane="0" toLane="0"/>

    <connection from="-802794946#0" to="802794946#0" fromLane="0" toLane="0"/>

    <connection from="-802794946#1" to="802794948#0" fromLane="0" toLane="0"/>
    <connection from="-802794946#1" to="-802794946#0" fromLane="0" toLane="0"/>
    <connection from="-802794946#1" to="802794946#1" fromLane="0" toLane="0"/>

    <connection from="-802794948#0" to="-802794946#0" fromLane="0" toLane="0"/>
    <connection from="-802794948#0" to="802794946#1" fromLane="0" toLane="0"/>
    <connection from="-802794948#0" to="802794948#0" fromLane="0" toLane="0"/>

    <connection from="-802794948#1" to="-802794948#0" fromLane="0" toLane="0"/>
    <connection from="-802794948#1" to="-1195176490" fromLane="0" toLane="0"/>
    <connection from="-802794948#1" to="802794948#1" fromLane="0" toLane="0"/>

    <connection from="-802794949" to="-749959413#1" fromLane="0" toLane="0"/>
    <connection from="-802794949" to="749959413#2" fromLane="0" toLane="0"/>
    <connection from="-802794949" to="802794949" fromLane="0" toLane="0"/>

    <connection from="-802794950" to="-1195176494" fromLane="0" toLane="0"/>

    <connection from="-802794952" to="1211187479" fromLane="0" toLane="0"/>

    <connection from="-802794953" to="-746528092#2" fromLane="0" toLane="0"/>
    <connection from="-802794953" to="-1211187479" fromLane="0" toLane="0"/>
    <connection from="-802794953" to="746528092#3" fromLane="0" toLane="0"/>
    <connection from="-802794953" to="802794953" fromLane="0" toLane="0"/>

    <connection from="-802794955" to="-800108281" fromLane="0" toLane="0"/>

    <connection from="-802794959" to="450752220#2" fromLane="0" toLane="0"/>
    <connection from="-802794959" to="-450752220#1" fromLane="0" toLane="0"/>
    <connection from="-802794959" to="802794959" fromLane="0" toLane="0"/>

    <connection from="-804889483" to="804889483" fromLane="0" toLane="0"/>

    <connection from="-804889484" to="159463136#2" fromLane="0" toLane="0"/>
    <connection from="-804889484" to="-159463136#1" fromLane="0" toLane="0"/>
    <connection from="-804889484" to="804889484" fromLane="0" toLane="0"/>

    <connection from="-805333882" to="805333882" fromLane="0" toLane="0"/>

    <connection from="-805333888#0" to="805333888#0" fromLane="0" toLane="0"/>

    <connection from="-805333888#1" to="1211179298" fromLane="0" toLane="0"/>
    <connection from="-805333888#1" to="-805333888#0" fromLane="0" toLane="0"/>
    <connection from="-805333888#1" to="805333888#1" fromLane="0" toLane="0"/>

    <connection from="-805333888#2" to="1211179299" fromLane="0" toLane="0"/>
    <connection from="-805333888#2" to="-805333888#1" fromLane="0" toLane="0"/>
    <connection from="-805333888#2" to="805333888#2" fromLane="0" toLane="0"/>

    <connection from="-805333889" to="1111261524" fromLane="0" toLane="0"/>

    <connection from="-805971869#0" to="805971869#0" fromLane="0" toLane="0"/>

    <connection from="-805971869#1" to="-805333882" fromLane="0" toLane="0"/>
    <connection from="-805971869#1" to="-805971869#0" fromLane="0" toLane="0"/>
    <connection from="-805971869#1" to="1366734423" fromLane="0" toLane="0"/>
    <connection from="-805971869#1" to="805971869#1" fromLane="0" toLane="0"/>

    <connection from="-805971869#2" to="-805971869#1" fromLane="0" toLane="0"/>
    <connection from="-805971869#2" to="-805333889" fromLane="0" toLane="0"/>
    <connection from="-805971869#2" to="805971869#2" fromLane="0" toLane="0"/>

    <connection from="-805971869#3" to="742734989" fromLane="0" toLane="0"/>
    <connection from="-805971869#3" to="-805971869#2" fromLane="0" toLane="0"/>
    <connection from="-805971869#3" to="805971869#3" fromLane="0" toLane="0"/>

    <connection from="-847576202" to="-744238099#0" fromLane="0" toLane="0"/>
    <connection from="-847576202" to="744238099#1" fromLane="0" toLane="0"/>
    <connection from="-847576202" to="847576202" fromLane="0" toLane="0"/>

    <connection from="-895432952" to="548373950#4" fromLane="0" toLane="1"/>
    <connection from="-895432952" to="548373950#4" fromLane="0" toLane="2"/>
    <connection from="-895432952" to="895432952" fromLane="0" toLane="0"/>

    <connection from="-895443202" to="1364681850#1" fromLane="0" toLane="0"/>
    <connection from="-895443202" to="895443202" fromLane="0" toLane="0"/>

    <connection from="1047765851" to="-744238099#1" fromLane="0" toLane="0"/>
    <connection from="1047765851" to="744238099#2" fromLane="0" toLane="0"/>
    <connection from="1047765851" to="-1047765851" fromLane="0" toLane="0"/>

    <connection from="1047765852#0" to="-802000252#4" fromLane="0" toLane="0"/>
    <connection from="1047765852#0" to="1047765852#1" fromLane="0" toLane="0"/>
    <connection from="1047765852#0" to="802000252#5" fromLane="0" toLane="0"/>
    <connection from="1047765852#0" to="-1047765852#0" fromLane="0" toLane="0"/>

    <connection from="1047765852#1" to="-1047765852#1" fromLane="0" toLane="0"/>

    <connection from="1111261524" to="-1111261524" fromLane="0" toLane="0"/>

    <connection from="1177215276" to="1364681849#7" fromLane="0" toLane="1"/>
    <connection from="1177215276" to="1364681849#7" fromLane="0" toLane="2"/>

    <connection from="1177215277" to="1210908131#4" fromLane="0" toLane="0"/>
    <connection from="1177215277" to="1177215276" fromLane="0" toLane="0"/>
    <connection from="1177215277" to="-1210908131#3" fromLane="0" toLane="0"/>

    <connection from="1177215282" to="-1177215282" fromLane="0" toLane="0"/>

    <connection from="1193733759#0" to="1193733759#1" fromLane="0" toLane="0"/>
    <connection from="1193733759#0" to="1305162884" fromLane="0" toLane="0"/>
    <connection from="1193733759#0" to="-1193733759#0" fromLane="0" toLane="0"/>

    <connection from="1193733759#1" to="1193733759#2" fromLane="0" toLane="0"/>
    <connection from="1193733759#1" to="1305162883" fromLane="0" toLane="0"/>
    <connection from="1193733759#1" to="-1193733759#1" fromLane="0" toLane="0"/>

    <connection from="1193733759#2" to="-1305162882" fromLane="0" toLane="0"/>
    <connection from="1193733759#2" to="1193733759#3" fromLane="0" toLane="0"/>
    <connection from="1193733759#2" to="-1193733759#2" fromLane="0" toLane="0"/>

    <connection from="1193733759#3" to="-1193733759#3" fromLane="0" toLane="0"/>

    <connection from="1195176490" to="802794948#1" fromLane="0" toLane="0"/>
    <connection from="1195176490" to="-802794948#0" fromLane="0" toLane="0"/>
    <connection from="1195176490" to="-1195176490" fromLane="0" toLane="0"/>

    <connection from="1195176494" to="802794950" fromLane="0" toLane="0"/>
