<edges xmlns:xsi="http://www.w3.org/2001/XMLSchema-instance" version="1.20" xsi:noNamespaceSchemaLocation="http://sumo.dlr.de/xsd/edges_file.xsd">
    <location netOffset="-716957.53,-934460.60" convBoundary="0.00,0.00,4566.05,3990.00" origBoundary="76.970769,8.448574,77.030880,8.576337" projParameter="+proj=utm +zone=43 +ellps=WGS84 +datum=WGS84 +units=m +no_defs" />

    <edge id="-1047765851" from="1715865327" to="9634762436" priority="1" type="highway.service" numLanes="1" speed="5.56" shape="1160.17,2497.36 1191.97,2488.22 1251.57,2468.19 1263.12,2468.86 1270.67,2474.45 1274.12,2493.45" allow="pedestrian delivery bicycle" />
    <edge id="-1047765852#0" from="4476560795" to="9634762441" priority="3" type="highway.residential" numLanes="1" speed="13.89" disallow="tram rail_urban rail rail_electric rail_fast ship container cable_car subway aircraft wheelchair scooter drone" />
    <edge id="-1047765852#1" from="12657879692" to="4476560795" priority="3" type="highway.residential" numLanes="1" speed="13.89" shape="1191.60,2225.69 1187.28,2237.90 1170.96,2243.50 1120.46,2247.51 1078.79,2251.30" disallow="tram rail_urban rail rail_electric rail_fast ship container cable_car subway aircraft wheelchair scooter drone" />
    <edge id="-1111261524" from="10168276775" to="10168276773" priority="3" type="highway.residential" numLanes="1" speed="13.89" shape="1523.03,2501.29 1490.71,2505.30 1459.38,2511.86" disallow="tram rail_urban rail rail_electric rail_fast ship container cable_car subway aircraft wheelchair scooter drone" />
    <edge id="-1177215282" from="10936666446" to="10936666447" priority="1" type="highway.service" numLanes="1" speed="5.56" allow="pedestrian delivery bicycle" />
    <edge id="-1193733759#0" from="11080736317" to="11080736311" priority="3" type="highway.residential" numLanes="2" speed="13.89" shape="666.06,2418.84 669.26,2428.83 667.66,2454.65 652.49,2473.65 631.68,2500.54 617.16,2510.16 596.85,2522.10" disallow="tram rail_urban rail rail_electric rail_fast ship container cable_car subway aircraft wheelchair scooter drone" />
    <edge id="-1193733759#1" from="12088188932" to="11080736317" priority="3" type="highway.residential" numLanes="2" speed="13.89" disallow="tram rail_urban rail rail_electric rail_fast ship container cable_car subway aircraft wheelchair scooter drone" />
    <edge id="-1193733759#2" from="12088188931" to="12088188932" priority="3" type="highway.residential" numLanes="2" speed="13.89" shape="630.55,2403.06 643.05,2413.15 656.86,2416.56" disallow="tram rail_urban rail rail_electric rail_fast ship container cable_car subway aircraft wheelchair scooter drone" />
    <edge id="-1193733759#3" from="11080736322" to="12088188931" priority="3" type="highway.residential" numLanes="2" speed="13.89" shape="579.13,2378.78 596.51,2387.96 613.32,2392.45 629.52,2402.22 630.55,2403.06" disallow="tram rail_urban rail rail_electric rail_fast ship container cable_car subway aircraft wheelchair scooter drone" />
    <edge id="-1195176490" from="7509515055" to="11092876469" priority="3" type="highway.residential" numLanes="1" speed="13.89" disallow="tram rail_urban rail rail_electric rail_fast ship container cable_car subway aircraft wheelchair scooter drone" />
    <edge id="-1195176494" from="7509515042" to="10928627923" priority="3" type="highway.residential" numLanes="1" speed="13.89" disallow="tram rail_urban rail rail_electric rail_fast ship container cable_car subway aircraft wheelchair scooter drone" />
    <edge id="-1195238755" from="11093426364" to="6978614455" priority="1" type="highway.service" numLanes="1" speed="5.56" allow="pedestrian delivery bicycle" />
    <edge id="-1195269934" from="1715865308" to="11222081967" priority="3" type="highway.residential" numLanes="1" speed="13.89" shape="1256.74,2838.89 1269.17,2839.98 1286.01,2837.51 1290.15,2835.59 1292.95,2833.83 1295.55,2829.17 1296.87,2782.02 1298.02,2741.04 1299.54,2708.02 1300.64,2693.86 1296.53,2664.59" disallow="tram rail_urban rail rail_electric rail_fast ship container cable_car subway aircraft wheelchair scooter drone" />
    <edge id="-1210908131#0" from="12088188924" to="11219230698" priority="11" type="highway.secondary" numLanes="1" speed="27.78" shape="584.25,2503.60 563.04,2472.45 553.79,2461.50 541.45,2446.91 525.83,2428.74 523.00,2422.78 516.84,2409.81 506.82,2388.66 481.82,2335.93 473.01,2319.66 465.66,2310.10 454.02,2296.31 437.45,2280.86 415.92,2267.40 354.69,2246.18 332.74,2229.92 259.22,2151.38 245.55,2136.78 227.29,2114.44" disallow="tram rail_urban rail rail_electric rail_fast ship container cable_car subway aircraft wheelchair scooter drone" />
    <edge id="-1210908131#1" from="11080736311" to="12088188924" priority="11" type="highway.secondary" numLanes="1" speed="27.78" disallow="tram rail_urban rail rail_electric rail_fast ship container cable_car subway aircraft wheelchair scooter drone" />
    <edge id="-1210908131#2" from="6970574685" to="11080736311" priority="11" type="highway.secondary" numLanes="1" speed="27.78" disallow="tram rail_urban rail rail_electric rail_fast ship container cable_car subway aircraft wheelchair scooter drone" />
    <edge id="-1210908131#3" from="10936666422" to="6970574685" priority="11" type="highway.secondary" numLanes="1" speed="27.78" shape="715.71,2682.79 685.98,2642.22 651.50,2593.38 600.76,2527.84" disallow="tram rail_urban rail rail_electric rail_fast ship container cable_car subway aircraft wheelchair scooter drone" />
    <edge id="-1210908131#4" from="6975349631" to="10936666422" priority="11" type="highway.secondary" numLanes="1" speed="27.78" disallow="tram rail_urban rail rail_electric rail_fast ship container cable_car subway aircraft wheelchair scooter drone" />
    <edge id="-1211177868" from="11221814854" to="11221814852" priority="3" type="highway.residential" numLanes="1" speed="13.89" shape="940.31,2789.96 941.91,2781.74 940.91,2741.95" disallow="tram rail_urban rail rail_electric rail_fast ship container cable_car subway aircraft wheelchair scooter drone" />
    <edge id="-1211179298" from="11221812699" to="11221812697" priority="1" type="highway.service" numLanes="1" speed="5.56" allow="pedestrian delivery bicycle" />
    <edge id="-1211179299" from="11221812701" to="11221812700" priority="1" type="highway.service" numLanes="1" speed="5.56" allow="pedestrian delivery bicycle" />
    <edge id="-1211182611" from="12088252576" to="11221850315" priority="3" type="highway.residential" numLanes="1" speed="13.89" shape="598.15,2103.93 616.77,2101.97 616.81,2093.46 622.13,2067.15 630.44,2057.33 639.93,2046.11 645.91,2042.38 656.55,2035.74 670.91,2028.47 676.74,2028.28 681.83,2038.76 688.97,2056.89" disallow="tram rail_urban rail rail_electric rail_fast ship container cable_car subway aircraft wheelchair scooter drone" />
    <edge id="-1211187479" from="7509515065" to="11221902049" priority="3" type="highway.residential" numLanes="1" speed="13.89" disallow="tram rail_urban rail rail_electric rail_fast ship container cable_car subway aircraft wheelchair scooter drone" />
    <edge id="-1211206496" from="11222045533" to="11222045528" priority="1" type="highway.service" numLanes="1" speed="5.56" shape="1153.68,2471.55 1193.59,2459.95 1202.37,2452.59 1203.46,2439.81 1188.57,2435.14 1145.03,2453.82" allow="pedestrian delivery bicycle" />
    <edge id="-1211218242" from="11222114618" to="11222114617" priority="3" type="highway.residential" numLanes="1" speed="13.89" disallow="tram rail_urban rail rail_electric rail_fast ship container cable_car subway aircraft wheelchair scooter drone" />
    <edge id="-1211218982" from="11222183341" to="11222183340" priority="3" type="highway.residential" numLanes="1" speed="13.89" disallow="tram rail_urban rail rail_electric rail_fast ship container cable_car subway aircraft wheelchair scooter drone" />
    <edge id="-1262877731#0" from="7509515018" to="10928627923" priority="3" type="highway.residential" numLanes="1" speed="13.89" disallow="tram rail_urban rail rail_electric rail_fast ship container cable_car subway aircraft wheelchair scooter drone" />
    <edge id="-1262877731#1" from="11092876469" to="7509515018" priority="3" type="highway.residential" numLanes="1" speed="13.89" disallow="tram rail_urban rail rail_electric rail_fast ship container cable_car subway aircraft wheelchair scooter drone" />
    <edge id="-1262877731#2" from="11092846096" to="11092876469" priority="3" type="highway.residential" numLanes="1" speed="13.89" disallow="tram rail_urban rail rail_electric rail_fast ship container cable_car subway aircraft wheelchair scooter drone" />
    <edge id="-1262877732" from="10928627924" to="11092846096" priority="3" type="highway.residential" numLanes="1" speed="13.89" disallow="tram rail_urban rail rail_electric rail_fast ship container cable_car subway aircraft wheelchair scooter drone" />
    <edge id="-1266707781" from="6975349630" to="6975349631" priority="10" type="highway.tertiary" numLanes="1" speed="22.22" disallow="tram rail_urban rail rail_electric rail_fast ship container cable_car subway aircraft wheelchair scooter drone" />
    <edge id="-1305162881#0" from="12088188927" to="12088188924" priority="3" type="highway.residential" numLanes="1" speed="13.89" shape="607.36,2486.84 603.52,2491.37 584.25,2503.60" disallow="tram rail_urban rail rail_electric rail_fast ship container cable_car subway aircraft wheelchair scooter drone" />
    <edge id="-1305162881#1" from="12088188926" to="12088188927" priority="3" type="highway.residential" numLanes="1" speed="13.89" disallow="tram rail_urban rail rail_electric rail_fast ship container cable_car subway aircraft wheelchair scooter drone" />
    <edge id="-1305162882" from="12088188931" to="12088188927" priority="3" type="highway.residential" numLanes="1" speed="13.89" shape="630.55,2403.06 613.64,2442.13 599.19,2465.98 596.34,2473.89 607.36,2486.84" disallow="tram rail_urban rail rail_electric rail_fast ship container cable_car subway aircraft wheelchair scooter drone" />
    <edge id="-1305162883" from="12088188935" to="12088188932" priority="3" type="highway.residential" numLanes="1" speed="13.89" shape="695.49,2349.09 678.74,2363.38 667.20,2394.86 656.86,2416.56" disallow="tram rail_urban rail rail_electric rail_fast ship container cable_car subway aircraft wheelchair scooter drone" />
    <edge id="-1305162884" from="12088188940" to="11080736317" priority="3" type="highway.residential" numLanes="1" speed="13.89" shape="743.71,2439.18 735.64,2438.92 723.10,2441.52 709.69,2436.78 688.70,2424.66 666.06,2418.84" disallow="tram rail_urban rail rail_electric rail_fast ship container cable_car subway aircraft wheelchair scooter drone" />
    <edge id="-1305162885" from="12088188942" to="12088188941" priority="3" type="highway.residential" numLanes="1" speed="13.89" disallow="tram rail_urban rail rail_electric rail_fast ship container cable_car subway aircraft wheelchair scooter drone" />
    <edge id="-1305162886" from="12088188944" to="12088188943" priority="3" type="highway.residential" numLanes="1" speed="13.89" disallow="tram rail_urban rail rail_electric rail_fast ship container cable_car subway aircraft wheelchair scooter drone" />
    <edge id="-1366734423" from="7532124150" to="7505174916" priority="3" type="highway.residential" numLanes="1" speed="13.89" disallow="tram rail_urban rail rail_electric rail_fast ship container cable_car subway aircraft wheelchair scooter drone" />
    <edge id="-159463136#0" from="1715865308" to="304987501" priority="10" type="highway.tertiary" numLanes="1" speed="22.22" shape="1256.74,2838.89 1255.34,2855.24 1254.47,2884.08 1254.07,2922.50 1250.80,2935.33 1249.94,2964.36 1249.54,2973.03 1251.73,2978.63 1254.19,2984.24 1259.13,2986.55 1282.00,2993.27 1292.03,2996.11 1297.84,3003.37 1301.25,3011.43 1303.41,3025.67 1304.82,3041.52 1306.22,3052.46 1307.85,3066.80 1311.05,3077.59 1321.27,3095.17 1325.54,3104.05 1328.99,3119.73 1329.97,3134.56 1328.75,3150.36 1328.01,3160.05 1328.17,3177.35 1327.56,3196.98 1329.57,3227.39 1330.37,3232.58 1332.51,3246.49 1335.94,3261.54 1343.01,3290.97 1343.37,3297.80 1344.35,3316.74 1340.20,3329.87 1335.75,3336.91 1326.38,3342.32 1315.29,3345.48 1288.69,3348.88 1280.90,3350.07 1244.94,3355.55 1210.17,3365.63 1178.68,3374.13 1123.13,3388.45 1072.24,3420.69 1069.72,3422.30 1028.15,3464.34 981.89,3499.33 954.01,3519.73 918.14,3546.54 906.57,3554.70 860.59,3588.06 843.11,3600.75 787.43,3624.30 747.72,3639.53 727.87,3652.35 721.73,3656.32 699.78,3673.46 674.48,3689.98 650.85,3715.56 626.69,3741.98 610.84,3754.86 586.89,3777.01 576.60,3787.60 533.58,3817.73 503.81,3831.90 409.79,3882.04 393.67,3890.00 369.09,3907.01 363.96,3910.67 325.26,3934.22 315.19,3938.46 300.25,3945.15 261.42,3955.52 235.12,3960.32 197.25,3968.21 165.11,3971.80 151.21,3974.04 106.62,3981.22 65.43,3990.00" disallow="tram rail_urban rail rail_electric rail_fast ship container cable_car subway aircraft wheelchair scooter drone" />
    <edge id="-159463136#1" from="1715865310" to="1715865308" priority="10" type="highway.tertiary" numLanes="1" speed="22.22" shape="1240.15,2738.94 1256.31,2789.49 1258.93,2821.87 1256.74,2838.89" disallow="tram rail_urban rail rail_electric rail_fast ship container cable_car subway aircraft wheelchair scooter drone" />
    <edge id="-159463136#2" from="1715865312" to="1715865310" priority="10" type="highway.tertiary" numLanes="1" speed="22.22" disallow="tram rail_urban rail rail_electric rail_fast ship container cable_car subway aircraft wheelchair scooter drone" />
    <edge id="-450752220#0" from="4476560783" to="4476560757" priority="3" type="highway.residential" numLanes="1" speed="13.89" shape="763.92,2111.04 767.22,2097.21 766.95,2078.09 767.65,2046.85 767.92,2041.07 769.35,2011.00 767.65,1999.59 764.07,1988.89" disallow="tram rail_urban rail rail_electric rail_fast ship container cable_car subway aircraft wheelchair scooter drone" />
    <edge id="-450752220#1" from="12088188950" to="4476560783" priority="3" type="highway.residential" numLanes="1" speed="13.89" shape="793.31,2106.22 785.20,2106.99 763.92,2111.04" disallow="tram rail_urban rail rail_electric rail_fast ship container cable_car subway aircraft wheelchair scooter drone" />
    <edge id="-450752220#2" from="6986208821" to="12088188950" priority="3" type="highway.residential" numLanes="1" speed="13.89" shape="921.00,2102.50 810.35,2104.61 793.31,2106.22" disallow="tram rail_urban rail rail_electric rail_fast ship container cable_car subway aircraft wheelchair scooter drone" />
    <edge id="-450752220#3" from="4476560773" to="6986208821" priority="3" type="highway.residential" numLanes="1" speed="13.89" shape="1054.10,2098.62 1023.09,2103.36 987.67,2104.85 955.53,2103.95 921.00,2102.50" disallow="tram rail_urban rail rail_electric rail_fast ship container cable_car subway aircraft wheelchair scooter drone" />
    <edge id="-548373963#0" from="2503482718" to="5297704214" priority="11" type="highway.secondary" numLanes="2" speed="27.78" shape="1608.66,2366.56 1640.10,2379.98 1652.63,2385.34 1696.82,2404.75 1699.68,2406.21 1719.92,2413.26 1727.57,2415.15 1732.07,2415.76 1768.36,2416.96 1777.59,2417.09 1817.69,2414.40 1826.91,2413.78 1832.83,2413.54 1861.70,2408.83 1880.98,2397.06 1895.77,2384.23 1914.72,2363.05 1930.92,2342.60 1944.04,2327.31 1952.79,2316.84 1970.88,2309.33 1988.82,2306.60 2005.13,2307.10 2006.28,2307.14" disallow="tram rail_urban rail rail_electric rail_fast ship container cable_car subway aircraft wheelchair scooter drone" />
    <edge id="-548373963#1" from="7482769954" to="2503482718" priority="11" type="highway.secondary" numLanes="2" speed="27.78" disallow="tram rail_urban rail rail_electric rail_fast ship container cable_car subway aircraft wheelchair scooter drone" />
    <edge id="-548373963#2" from="7482769944" to="7482769954" priority="11" type="highway.secondary" numLanes="2" speed="27.78" disallow="tram rail_urban rail rail_electric rail_fast ship container cable_car subway aircraft wheelchair scooter drone" />
    <edge id="-548373963#3" from="7130134940" to="7482769944" priority="11" type="highway.secondary" numLanes="2" speed="27.78" shape="1464.21,2312.22 1483.36,2315.38 1500.31,2321.16" disallow="tram rail_urban rail rail_electric rail_fast ship container cable_car subway aircraft wheelchair scooter drone" />
    <edge id="-548373963#4" from="7482769929" to="7130134940" priority="11" type="highway.secondary" numLanes="2" speed="27.78" disallow="tram rail_urban rail rail_electric rail_fast ship container cable_car subway aircraft wheelchair scooter drone" />
    <edge id="-548373963#5" from="305427594" to="7482769929" priority="11" type="highway.secondary" numLanes="2" speed="27.78" shape="1341.60,2307.14 1372.30,2301.84 1401.19,2301.81 1425.70,2305.86" disallow="tram rail_urban rail rail_electric rail_fast ship container cable_car subway aircraft wheelchair scooter drone" />
    <edge id="-548373963#6" from="305427596" to="305427594" priority="11" type="highway.secondary" numLanes="2" speed="27.78" disallow="tram rail_urban rail rail_electric rail_fast ship container cable_car subway aircraft wheelchair scooter drone" />
    <edge id="-649120019#0" from="6092537869" to="6092538794" priority="3" type="highway.residential" numLanes="1" speed="13.89" shape="825.32,2713.61 818.23,2711.23 805.39,2709.39 794.33,2706.41 782.67,2704.00 755.50,2701.39" disallow="tram rail_urban rail rail_electric rail_fast ship container cable_car subway aircraft wheelchair scooter drone" />
    <edge id="-649120019#1" from="6092537878" to="6092537869" priority="3" type="highway.residential" numLanes="1" speed="13.89" shape="907.04,2733.40 899.37,2731.16 890.36,2729.50 883.13,2727.26 875.17,2725.60 867.35,2723.95 859.09,2721.42 850.83,2719.32 840.95,2716.62 825.32,2713.61" disallow="tram rail_urban rail rail_electric rail_fast ship container cable_car subway aircraft wheelchair scooter drone" />
    <edge id="-649120019#2" from="11221814852" to="6092537878" priority="3" type="highway.residential" numLanes="1" speed="13.89" shape="940.91,2741.95 937.27,2741.18 926.95,2737.90 915.30,2735.34 907.04,2733.40" disallow="tram rail_urban rail rail_electric rail_fast ship container cable_car subway aircraft wheelchair scooter drone" />
    <edge id="-649120019#3" from="6092538791" to="11221814852" priority="3" type="highway.residential" numLanes="1" speed="13.89" shape="986.51,2802.91 984.22,2789.18 982.25,2784.18 979.63,2778.45 977.29,2772.42 972.31,2764.11 968.50,2757.18 963.97,2750.11 957.04,2745.24 949.37,2743.73 940.91,2741.95" disallow="tram rail_urban rail rail_electric rail_fast ship container cable_car subway aircraft wheelchair scooter drone" />
    <edge id="-649943775" from="6098633270" to="6098633245" priority="3" type="highway.residential" numLanes="1" speed="13.89" shape="822.66,3062.51 817.20,3057.70 810.19,3048.87 805.17,3039.26 793.51,3020.30 783.08,3004.12 776.44,2989.40 770.12,2977.70 765.35,2969.12 761.36,2958.69 758.84,2949.96 757.48,2946.07 754.77,2935.92 753.11,2928.75 751.81,2922.09 745.46,2902.33 743.99,2891.54 742.88,2877.21 743.44,2865.58 745.55,2852.28 744.84,2841.12 745.16,2839.60 746.01,2834.97 748.15,2818.93 747.20,2807.47 746.60,2786.05 745.50,2762.44 742.85,2747.25 730.05,2721.11" disallow="tram rail_urban rail rail_electric rail_fast ship container cable_car subway aircraft wheelchair scooter drone" />
    <edge id="-742734989" from="6952903341" to="2503482717" priority="3" type="highway.residential" numLanes="1" speed="13.89" shape="1679.11,2457.06 1690.03,2515.00 1689.62,2541.19 1684.01,2557.22 1676.64,2563.03 1669.40,2564.32 1667.47,2574.31 1662.20,2580.11 1656.26,2579.90 1650.39,2579.60 1640.78,2577.88 1601.51,2569.84 1563.41,2561.17" disallow="tram rail_urban rail rail_electric rail_fast ship container cable_car subway aircraft wheelchair scooter drone" />
    <edge id="-744238099#0" from="7909042545" to="1715865314" priority="10" type="highway.tertiary" numLanes="1" speed="22.22" shape="1176.28,2551.30 1183.40,2575.54 1198.21,2605.13 1213.42,2634.33" disallow="tram rail_urban rail rail_electric rail_fast ship container cable_car subway aircraft wheelchair scooter drone" />
    <edge id="-744238099#1" from="1715865327" to="7909042545" priority="10" type="highway.tertiary" numLanes="1" speed="22.22" shape="1160.17,2497.36 1169.38,2527.75 1176.28,2551.30" disallow="tram rail_urban rail rail_electric rail_fast ship container cable_car subway aircraft wheelchair scooter drone" />
    <edge id="-744238099#2" from="11222045533" to="1715865327" priority="10" type="highway.tertiary" numLanes="1" speed="22.22" disallow="tram rail_urban rail rail_electric rail_fast ship container cable_car subway aircraft wheelchair scooter drone" />
    <edge id="-744238099#3" from="11222045528" to="11222045533" priority="10" type="highway.tertiary" numLanes="1" speed="22.22" shape="1145.03,2453.82 1152.64,2467.39 1153.68,2471.55" disallow="tram rail_urban rail rail_electric rail_fast ship container cable_car subway aircraft wheelchair scooter drone" />
    <edge id="-744238099#4" from="1715865345" to="11222045528" priority="10" type="highway.tertiary" numLanes="1" speed="22.22" shape="1114.47,2405.52 1129.21,2425.60 1130.31,2427.54 1145.03,2453.82" disallow="tram rail_urban rail rail_electric rail_fast ship container cable_car subway aircraft wheelchair scooter drone" />
    <edge id="-744238099#5" from="6975349629" to="1715865345" priority="10" type="highway.tertiary" numLanes="1" speed="22.22" disallow="tram rail_urban rail rail_electric rail_fast ship container cable_car subway aircraft wheelchair scooter drone" />
    <edge id="-744238100" from="1715865314" to="1715865312" priority="10" type="highway.tertiary" numLanes="1" speed="22.22" disallow="tram rail_urban rail rail_electric rail_fast ship container cable_car subway aircraft wheelchair scooter drone" />
    <edge id="-744240848#0" from="6965539795" to="6965539801" priority="3" type="highway.residential" numLanes="1" speed="13.89" disallow="tram rail_urban rail rail_electric rail_fast ship container cable_car subway aircraft wheelchair scooter drone" />
    <edge id="-744240848#1" from="6965539791" to="6965539795" priority="3" type="highway.residential" numLanes="1" speed="13.89" shape="565.63,2330.61 577.11,2300.73 585.32,2279.27 588.13,2258.82 593.90,2229.11" disallow="tram rail_urban rail rail_electric rail_fast ship container cable_car subway aircraft wheelchair scooter drone" />
    <edge id="-744528054#0" from="7016197085" to="6975349636" priority="3" type="highway.residential" numLanes="1" speed="13.89" shape="1355.39,2078.44 1416.32,2070.55 1448.33,2068.88 1470.86,2072.77 1485.09,2082.67 1506.28,2098.92 1517.86,2142.39" disallow="tram rail_urban rail rail_electric rail_fast ship container cable_car subway aircraft wheelchair scooter drone" />
    <edge id="-744528054#1" from="6968124083" to="7016197085" priority="3" type="highway.residential" numLanes="1" speed="13.89" shape="1081.07,2004.80 1136.79,1997.30 1150.84,1995.88 1172.15,1991.96 1186.47,1986.08 1208.69,1974.97 1218.13,1974.96 1224.92,1975.59 1227.40,1988.91 1229.53,1996.98 1230.49,2024.87 1231.34,2049.44 1232.35,2062.05 1238.16,2077.60 1251.93,2090.50 1261.94,2094.50 1278.57,2095.41 1331.46,2082.84 1355.39,2078.44" disallow="tram rail_urban rail rail_electric rail_fast ship container cable_car subway aircraft wheelchair scooter drone" />
    <edge id="-744796384" from="6970546580" to="6970574685" priority="3" type="highway.residential" numLanes="1" speed="13.89" shape="436.67,2552.40 445.36,2543.92 451.21,2539.55 465.58,2530.53 470.24,2529.38 474.45,2529.91 477.76,2532.65 488.49,2556.99 494.19,2568.31 502.14,2572.17 510.72,2571.33 600.76,2527.84" disallow="tram rail_urban rail rail_electric rail_fast ship container cable_car subway aircraft wheelchair scooter drone" />
    <edge id="-745527903" from="6978614455" to="6978614457" priority="1" type="highway.service" numLanes="1" speed="5.56" allow="pedestrian delivery bicycle" />
    <edge id="-745527904#0" from="6978614457" to="6978614461" priority="3" type="highway.residential" numLanes="1" speed="13.89" shape="966.79,2634.84 955.52,2616.88 948.03,2607.31 938.91,2599.77 908.08,2577.84" disallow="tram rail_urban rail rail_electric rail_fast ship container cable_car subway aircraft wheelchair scooter drone" />
    <edge id="-745527904#1" from="6978614456" to="6978614457" priority="3" type="highway.residential" numLanes="1" speed="13.89" disallow="tram rail_urban rail rail_electric rail_fast ship container cable_car subway aircraft wheelchair scooter drone" />
    <edge id="-746528091" from="6986208808" to="6986208811" priority="3" type="highway.residential" numLanes="1" speed="13.89" shape="923.31,2144.09 884.52,2142.27 856.41,2144.85 806.30,2143.42" disallow="tram rail_urban rail rail_electric rail_fast ship container cable_car subway aircraft wheelchair scooter drone" />
    <edge id="-746528092#0" from="6986208808" to="6986208821" priority="3" type="highway.residential" numLanes="1" speed="13.89" shape="923.31,2144.09 922.11,2113.11 921.00,2102.50" disallow="tram rail_urban rail rail_electric rail_fast ship container cable_car subway aircraft wheelchair scooter drone" />
    <edge id="-746528092#1" from="6986208818" to="6986208808" priority="3" type="highway.residential" numLanes="1" speed="13.89" shape="924.93,2193.69 924.26,2168.74 923.31,2144.09" disallow="tram rail_urban rail rail_electric rail_fast ship container cable_car subway aircraft wheelchair scooter drone" />
    <edge id="-746528092#2" from="7509515065" to="6986208818" priority="3" type="highway.residential" numLanes="1" speed="13.89" shape="964.36,2194.17 949.68,2194.87 924.93,2193.69" disallow="tram rail_urban rail rail_electric rail_fast ship container cable_car subway aircraft wheelchair scooter drone" />
    <edge id="-746528092#3" from="5227949872" to="7509515065" priority="3" type="highway.residential" numLanes="1" speed="13.89" shape="1061.57,2190.45 1026.11,2182.90 1011.83,2182.53 993.70,2184.67 977.57,2189.69 964.36,2194.17" disallow="tram rail_urban rail rail_electric rail_fast ship container cable_car subway aircraft wheelchair scooter drone" />
    <edge id="-749702421" from="7010650566" to="7010650571" priority="3" type="highway.residential" numLanes="1" speed="13.89" shape="1019.98,2264.82 1020.04,2254.18 1019.46,2246.61 1019.76,2240.95 1020.91,2238.33 1024.33,2236.09 1029.97,2234.86 1051.23,2230.10 1072.27,2227.30" disallow="tram rail_urban rail rail_electric rail_fast ship container cable_car subway aircraft wheelchair scooter drone" />
    <edge id="-749959413#0" from="6986208818" to="7012795918" priority="3" type="highway.residential" numLanes="2" speed="13.89" disallow="tram rail_urban rail rail_electric rail_fast ship container cable_car subway aircraft wheelchair scooter drone" />
    <edge id="-749959413#1" from="7509515039" to="6986208818" priority="3" type="highway.residential" numLanes="2" speed="13.89" shape="808.36,2271.02 864.09,2264.71 888.38,2262.02 913.72,2261.24 918.65,2260.07 922.93,2257.95 924.23,2250.01 924.93,2193.69" disallow="tram rail_urban rail rail_electric rail_fast ship container cable_car subway aircraft wheelchair scooter drone" />
    <edge id="-749959413#2" from="12088188943" to="7509515039" priority="3" type="highway.residential" numLanes="2" speed="13.89" shape="697.24,2252.35 713.09,2256.06 755.36,2264.89 775.31,2269.38 808.36,2271.02" disallow="tram rail_urban rail rail_electric rail_fast ship container cable_car subway aircraft wheelchair scooter drone" />
    <edge id="-749959413#3" from="12088188941" to="12088188943" priority="3" type="highway.residential" numLanes="2" speed="13.89" disallow="tram rail_urban rail rail_electric rail_fast ship container cable_car subway aircraft wheelchair scooter drone" />
    <edge id="-749959413#4" from="6965539795" to="12088188941" priority="3" type="highway.residential" numLanes="2" speed="13.89" shape="593.90,2229.11 652.65,2241.92 669.93,2245.96" disallow="tram rail_urban rail rail_electric rail_fast ship container cable_car subway aircraft wheelchair scooter drone" />
    <edge id="-749999919#0" from="11222114617" to="7013199018" priority="3" type="highway.residential" numLanes="1" speed="13.89" shape="1378.58,2499.72 1378.80,2497.13 1380.89,2473.34 1384.83,2453.70" disallow="tram rail_urban rail rail_electric rail_fast ship container cable_car subway aircraft wheelchair scooter drone" />
    <edge id="-749999919#1" from="7013199012" to="11222114617" priority="3" type="highway.residential" numLanes="1" speed="13.89" shape="1319.64,2522.78 1349.79,2518.67 1374.34,2512.78 1378.03,2506.29 1378.58,2499.72" disallow="tram rail_urban rail rail_electric rail_fast ship container cable_car subway aircraft wheelchair scooter drone" />
    <edge id="-749999920#0" from="7013199018" to="7013199024" priority="3" type="highway.residential" numLanes="1" speed="13.89" shape="1384.83,2453.70 1386.19,2448.49 1384.57,2432.80 1374.99,2412.71 1368.54,2395.77" disallow="tram rail_urban rail rail_electric rail_fast ship container cable_car subway aircraft wheelchair scooter drone" />
    <edge id="-749999920#1" from="7013199017" to="7013199018" priority="3" type="highway.residential" numLanes="1" speed="13.89" disallow="tram rail_urban rail rail_electric rail_fast ship container cable_car subway aircraft wheelchair scooter drone" />
    <edge id="-749999921#0" from="7013199024" to="305427594" priority="3" type="highway.residential" numLanes="1" speed="13.89" shape="1368.54,2395.77 1360.42,2373.46 1353.89,2351.57 1347.09,2322.33 1341.60,2307.14" disallow="tram rail_urban rail rail_electric rail_fast ship container cable_car subway aircraft wheelchair scooter drone" />