<?xml version="1.0" encoding="UTF-8"?>

<!-- generated on 2026-03-15 23:30:04 by Eclipse SUMO duarouter Version 1.24.0
<duarouterConfiguration xmlns:xsi="http://www.w3.org/2001/XMLSchema-instance" xsi:noNamespaceSchemaLocation="http://sumo.dlr.de/xsd/duarouterConfiguration.xsd">

    <input>
        <net-file value="best_map.net.xml"/>
        <route-files value="raw_trips.trips.xml"/>
    </input>

    <output>
        <output-file value="simulation_optimized.rou.xml"/>
    </output>

    <report>
        <no-warnings value="true"/>
        <ignore-errors value="true"/>
        <no-step-log value="true"/>
    </report>

</duarouterConfiguration>
-->

<routes xmlns:xsi="http://www.w3.org/2001/XMLSchema-instance" xsi:noNamespaceSchemaLocation="http://sumo.dlr.de/xsd/routes_file.xsd">
    <vType id="car" length="5.00" maxSpeed="50.00" accel="2.6" decel="4.5" sigma="0.5"/>
    <vehicle id="veh0" type="car" depart="0.00">
        <route edges="895443202 -895443202 1364681850#1 1364681134#0 1364681134#1 1364681851#1 1364681851#2 1364681849#0 1364681849#1 -744238099#5"/>
    </vehicle>
    <vehicle id="veh1" type="car" depart="0.50">
        <route edges="548373950#0 548373950#1 548373950#2 548373950#3 548373950#4 548373950#5 548373950#6 745188104#0 745188104#1 1364681850#0 1364681850#1 -548373963#6 -548373963#5 -548373963#4 -548373963#3"/>
    </vehicle>
    <vehicle id="veh2" type="car" depart="1.00">
        <route edges="-548373963#2 548373963#2 548373963#3 548373963#4 548373963#5 548373963#6 1364681134#0 1364681134#1 1364681851#1 1364681851#2 1364681849#0 1364681849#1 1364681849#2 1364681849#3 1364681849#4 1364681849#5 -1210908131#4"/>
    </vehicle>
    <vehicle id="veh3" type="car" depart="1.50">
        <route edges="744238099#1 744238099#2 744238099#3 744238099#4 548373950#6 548373950#7 1364681848#0 1364681134#1 1364681851#1"/>
    </vehicle>
    <vehicle id="veh5" type="car" depart="2.50">
        <route edges="649120019#0 -649120019#0 548373950#3 548373950#4 548373950#5 548373950#6 548373950#7 1364681848#0 1364681134#1 1364681851#1 1364681851#2 1364681849#0 -802000252#5 -802000252#4 -802000252#3 -802000252#2 -746528092#3 -746528092#2 -746528092#1 -746528092#0 450752220#3"/>
    </vehicle>
    <vehicle id="veh6" type="car" depart="3.00">
        <route edges="1111261524 -1111261524 805333889 805971869#2 805971869#3 548373963#1 548373963#2 548373963#3 548373963#4 548373963#5 548373963#6 1364681134#0 1364681134#1 1364681851#1 1364681851#2 1364681849#0 -802000252#5 -802000252#4 -802000252#3 -802000252#2 -802000252#1"/>
    </vehicle>
    <vehicle id="veh7" type="car" depart="3.50">
        <route edges="548373950#5 744238099#5 1364681849#2 1364681849#3 1364681849#4 1364681849#5"/>
    </vehicle>
    <vehicle id="veh8" type="car" depart="4.00">
        <route edges="805333882 805971869#1 805971869#2 805971869#3 548373963#1 548373963#2 548373963#3 548373963#4 548373963#5 548373963#6 1364681134#0 1364681134#1 1364681851#1 1364681851#2 1364681849#0 1364681849#1 1364681849#2 1364681849#3 1364681849#4 1364681849#5 1266707781 548373950#2 548373950#3 895432952 -895432952"/>
    </vehicle>
    <vehicle id="veh9" type="car" depart="4.50">
        <route edges="-1211218242 -749999919#0 -749999920#0 -749999921#0 548373963#6 1364681134#0 1364681134#1 1364681851#1 1364681851#2 1364681849#0 -802000252#5 -802000252#4 -802000252#3 801397524 750356550 744528054#1 -744528054#1"/>
    </vehicle>
    <vehicle id="veh10" type="car" depart="5.00">
        <route edges="1262877731#2 1262877732 -1262877732 -1262877731#2 -1262877731#1 -1262877731#0 1195176494 802794950 450752220#1 450752220#2 450752220#3 802000252#0 802000252#1 802000252#2 802000252#3 802000252#4 802000252#5 1364681849#1 -744238099#5 -744238099#4 -744238099#3 -744238099#2 -744238099#1 -744238099#0 -744238100 -159463136#2 -159463136#1 -1195269934 1195269934"/>
    </vehicle>
    <vehicle id="veh11" type="car" depart="5.50">
        <route edges="-1210908131#0 1210908131#0 1210908131#1 1210908131#2 1210908131#3 1210908131#4 1266707781 548373950#2 548373950#3 548373950#4 548373950#5 548373950#6 745188104#0 745188104#1 1364681850#0 1364681850#1 -548373963#6 -548373963#5 -548373963#4 -548373963#3 -548373963#2 548373963#2"/>
    </vehicle>
    <vehicle id="veh13" type="car" depart="6.50">
        <route edges="749999921#0 -749999921#0 548373963#6 745188103 1364681848#2 1364681848#3 548373993#0 548373993#1 548373993#2 548373993#3"/>
    </vehicle>
    <vehicle id="veh14" type="car" depart="7.00">
        <route edges="-1211218982 763017695#1 548373963#4 548373963#5 548373963#6 1364681134#0 1364681134#1 1364681851#1 1364681851#2 1364681849#0 1364681849#1 1364681849#2 1364681849#3 1364681849#4 1364681849#5 -1210908131#4 -1210908131#3 -1210908131#2 -1210908131#1 1305162881#0 1305162882 -1193733759#2 1305162883"/>
    </vehicle>
    <vehicle id="veh15" type="car" depart="7.50">
        <route edges="-746528092#3 746528092#3 802000252#2 802000252#3 802000252#4 802000252#5 1364681849#1 -744238099#5 548373950#6 745188104#0 745188104#1 1364681850#0 1364681850#1 -548373963#6 749999921#0 749999920#0 749999919#0 749999919#1"/>
    </vehicle>
    <vehicle id="veh17" type="car" depart="8.50">
        <route edges="1364681851#1 1364681851#2 1364681849#0 -802000252#5 -1047765852#0"/>
    </vehicle>
    <vehicle id="veh18" type="car" depart="9.00">
        <route edges="750006607 -750006607 -649120019#0 548373950#3 548373950#4 548373950#5 548373950#6 548373950#7 1364681848#0 1364681134#1 1364681851#1 1364681851#2 1364681849#0 -802000252#5 -802000252#4 -802000252#3 801397524 801397525 901028067#2 1364681851#0"/>
    </vehicle>
    <vehicle id="veh19" type="car" depart="9.50">
        <route edges="548373992#1 548373992#2 548373992#3 901028067#0 901028067#1 901028067#2 1364681851#0 1364681851#1 1364681851#2 1364681849#0 -802000252#5 -802000252#4 -802000252#3 -802000252#2 -802000252#1 -802000252#0 -450752220#3 -450752220#2 -450752220#1 -802794950 -1195176494 1262877731#0 -802794946#1 802794946#1"/>
    </vehicle>
    <vehicle id="veh21" type="car" depart="10.50">
        <route edges="1193733759#0 -1193733759#0 1210908131#2 1210908131#3 1210908131#4 1266707781 548373950#2 548373950#3 548373950#4 548373950#5 548373950#6 548373950#7 1364681848#0 1364681134#1 1364681851#1 1364681851#2 1364681849#0 -802000252#5 -802000252#4 -802000252#3 -802000252#2 -802000252#1 -802794952"/>
    </vehicle>
    <vehicle id="veh22" type="car" depart="11.00">
        <route edges="-450752220#0 450752220#0 450752220#1 450752220#2 450752220#3 802000252#0 802000252#1 802000252#2 802000252#3 749702421"/>
    </vehicle>
    <vehicle id="veh23" type="car" depart="11.50">
        <route edges="744240848#1 -744240848#1 -749959413#4 -749959413#3 -749959413#2 -749959413#1 746528092#2 746528092#3 802000252#2 802000252#3 802000252#4 802000252#5 1364681849#1 -744238099#5 548373950#6 745188104#0 745188104#1 1364681850#0 1364681850#1 -548373963#6 -548373963#5 -548373963#4 -548373963#3 -548373963#2 -548373963#1 548373963#1"/>
    </vehicle>
    <vehicle id="veh25" type="car" depart="12.50">
        <route edges="-746528092#2 746528092#2 746528092#3 802000252#2 802000252#3 802000252#4 802000252#5 1364681849#1 1364681849#2 1364681849#3 1364681849#4 1364681849#5 1266707781 548373950#2 649120019#0 649120019#1 -804889483"/>
    </vehicle>
    <vehicle id="veh26" type="car" depart="13.00">
        <route edges="802794946#1 -1262877731#0 1195176494 802794950 450752220#1 450752220#2 746528092#0 746528092#1 749959413#1 749959413#2 749959413#3 749959413#4"/>
    </vehicle>
    <vehicle id="veh27" type="car" depart="13.50">
        <route edges="744238099#0 744238099#1 744238099#2 744238099#3 744238099#4 548373950#6 548373950#7 1364681848#0 1364681134#1 1364681851#1 1364681851#2 1364681849#0 -802000252#5"/>
    </vehicle>
    <vehicle id="veh28" type="car" depart="14.00">
        <route edges="-548373963#6 548373963#6 1364681134#0 1364681134#1 1364681851#1 1364681851#2 1364681849#0 -802000252#5 -802000252#4 749702421 -749702421"/>
    </vehicle>
    <vehicle id="veh29" type="car" depart="14.50">
        <route edges="745188104#1 1364681850#0 1364681850#1 1364681134#0 1364681134#1 1364681851#1 1364681851#2 1364681849#0 -802000252#5 -802000252#4 -802000252#3 -802000252#2 -746528092#3 -746528092#2 746528092#2"/>
    </vehicle>
    <vehicle id="veh30" type="car" depart="15.00">
        <route edges="-1047765852#1 802000252#5 1364681849#1 -744238099#5 548373950#6 745188104#0 745188104#1 1364681850#0 1364681850#1 -548373963#6 749999921#0 749999920#0"/>
    </vehicle>
    <vehicle id="veh31" type="car" depart="15.50">
        <route edges="1210908131#4 1266707781 548373950#2 548373950#3 548373950#4 548373950#5 548373950#6 548373950#7 1364681848#0 1364681134#1 1364681851#1 1364681851#2 1364681849#0"/>
    </vehicle>
    <vehicle id="veh32" type="car" depart="16.00">
        <route edges="-802794959 450752220#2 450752220#3 802000252#0 802000252#1 802000252#2 802000252#3 802000252#4 802000252#5 1364681849#1 1364681849#2 1364681849#3 1364681849#4 1364681849#5 -1210908131#4 -1210908131#3 -1210908131#2 1193733759#0 1193733759#1 1193733759#2"/>
    </vehicle>
    <vehicle id="veh33" type="car" depart="16.50">
        <route edges="-802794948#0 802794946#1 -1262877731#0 1195176494 802794950 450752220#1 450752220#2 450752220#3 802000252#0 802000252#1 802000252#2 802000252#3 802000252#4 802000252#5 1364681849#1 1364681849#2 1364681849#3 1364681849#4 1364681849#5 -1210908131#4 -1210908131#3 -1210908131#2 -1210908131#1 -1210908131#0 1210908131#0"/>
    </vehicle>
    <vehicle id="veh34" type="car" depart="17.00">
        <route edges="-804889484 159463136#2 744238100 744238099#0 744238099#1 744238099#2 744238099#3 744238099#4 548373950#6 745188104#0 745188104#1 1364681850#0 1364681850#1 -548373963#6 -548373963#5 -548373963#4 -548373963#3 -548373963#2 -548373963#1 -805971869#3 -805971869#2 -805971869#1"/>
    </vehicle>
    <vehicle id="veh35" type="car" depart="17.50">
        <route edges="1177215277 -1210908131#3 -1210908131#2 -1210908131#1 1305162881#0 1305162882 -1193733759#2 -1193733759#1"/>
    </vehicle>
    <vehicle id="veh37" type="car" depart="18.50">
        <route edges="-548373963#2 548373963#2 548373963#3 -763017695#1 -763017695#0 1364681848#3 548373993#0 548373993#1 548373993#2 548373993#3"/>
    </vehicle>
    <vehicle id="veh38" type="car" depart="19.00">
        <route edges="895432952 -895432952 548373950#4 548373950#5 548373950#6 548373950#7 1364681848#0 1364681134#1 1364681851#1 1364681851#2 1364681849#0 -802000252#5 -802000252#4 -802000252#3 -802000252#2 -746528092#3 -746528092#2 -746528092#1 -746528092#0 450752220#3"/>
    </vehicle>
    <vehicle id="veh39" type="car" depart="19.50">
        <route edges="-802794948#0 802794946#1 -1262877731#0 1195176494 802794950 450752220#1 450752220#2 450752220#3 802000252#0 802000252#1 802000252#2 802000252#3 802000252#4 802000252#5 1364681849#1 -744238099#5 548373950#6 548373950#7 1364681848#0 1364681134#1 1364681851#1 1364681851#2 1364681849#0"/>
    </vehicle>
    <vehicle id="veh40" type="car" depart="20.00">
        <route edges="548373950#3 548373950#4 548373950#5 744238099#5 1364681849#2 1364681849#3 1364681849#4 1364681849#5 -1210908131#4 -1210908131#3 -1210908131#2 -1210908131#1 1305162881#0 1305162881#1 -1305162881#1 -1305162881#0"/>
    </vehicle>
    <vehicle id="veh41" type="car" depart="20.50">
        <route edges="1364681134#0 1364681134#1 1364681851#1 1364681846#0 1364681846#1 745188104#1 1364681850#0 1364681850#1 -548373963#6 -548373963#5 -548373963#4 -548373963#3 548373963#3"/>
    </vehicle>
    <vehicle id="veh42" type="car" depart="21.00">
        <route edges="-805971869#0 805971869#0 805971869#1 805971869#2 805971869#3 548373963#1 548373963#2 548373963#3 548373963#4 548373963#5 548373963#6 745188103 1364681848#2"/>
    </vehicle>
    <vehicle id="veh43" type="car" depart="21.50">
        <route edges="1364681851#0 1364681851#1 1364681846#0 1364681846#1 745188104#1 1364681850#0 1364681850#1 -548373963#6 -548373963#5 -548373963#4 -548373963#3 -548373963#2 -548373963#1 548373963#1"/>
    </vehicle>
    <vehicle id="veh44" type="car" depart="22.00">
        <route edges="1305162883 -1305162883 -1193733759#1 -1193733759#0 1210908131#2 1210908131#3 1210908131#4 1266707781 548373950#2 548373950#3 548373950#4 548373950#5 548373950#6 548373950#7 1364681848#0 1364681134#1 1364681851#1 1364681851#2 1364681849#0 -802000252#5 1047765852#1"/>
    </vehicle>
    <vehicle id="veh46" type="car" depart="23.00">
        <route edges="805971869#2 805971869#3 548373963#1 548373963#2 548373963#3 548373963#4 548373963#5 548373963#6 1364681134#0 1364681134#1 1364681851#1 1364681851#2 1364681849#0 -802000252#5 -802000252#4 -802000252#3 -802000252#2 -802000252#1 -802000252#0 -450752220#3 -450752220#2 -450752220#1 -802794950 -1195176494 1262877731#0 1262877731#1 1262877731#2 1262877732 -1262877732"/>
    </vehicle>
    <vehicle id="veh47" type="car" depart="23.50">
        <route edges="-746528092#3 746528092#3 802000252#2 802000252#3 802000252#4 802000252#5 1364681849#1 -744238099#5 548373950#6 745188104#0 745188104#1 1364681850#0 1364681850#1 -548373963#6 -548373963#5 -548373963#4 -548373963#3 548373963#3"/>
    </vehicle>
    <vehicle id="veh49" type="car" depart="24.50">
        <route edges="649120019#1 -649120019#1 -649120019#0 548373950#3 548373950#4 548373950#5 744238099#5 1364681849#2 1364681849#3 1364681849#4 1364681849#5 -1210908131#4 -1210908131#3 -1210908131#2 1193733759#0 -1193733759#0"/>
    </vehicle>
    <vehicle id="veh50" type="car" depart="25.00">
        <route edges="-763017695#1 763017695#1 548373963#4 548373963#5 548373963#6 1364681134#0 1364681134#1 1364681851#1 1364681851#2 1364681849#0 -802000252#5 -802000252#4 -802000252#3 -802000252#2 -802000252#1 -802000252#0 -450752220#3 -450752220#2 -450752220#1 -802794950 -1195176494 1262877731#0 -802794946#1 802794946#1"/>
    </vehicle>
    <vehicle id="veh51" type="car" depart="25.50">
        <route edges="746528092#3 802000252#2 802000252#3 802000252#4 802000252#5 1364681849#1 -744238099#5 548373950#6 745188104#0 745188104#1 1364681850#0 1364681850#1 -548373963#6 -548373963#5 -548373963#4 -548373963#3 -548373963#2"/>
    </vehicle>
    <vehicle id="veh52" type="car" depart="26.00">
        <route edges="-1195176494 1262877731#0 -1262877731#0 1195176494 802794950 450752220#1 450752220#2 450752220#3 802000252#0 802000252#1 802000252#2 802000252#3 802000252#4 802000252#5 1364681849#1 1364681849#2 1364681849#3 1364681849#4 1364681849#5 1266707781 -1266707781"/>
    </vehicle>
    <vehicle id="veh54" type="car" depart="27.00">
        <route edges="1364681851#2 1364681849#0 -802000252#5"/>
    </vehicle>
    <vehicle id="veh55" type="car" depart="27.50">
        <route edges="548373963#1 548373963#2 548373963#3 548373963#4 548373963#5 548373963#6 1364681134#0 1364681134#1 1364681851#1 1364681851#2 1364681849#0 1364681849#1 1364681849#2 1364681849#3 1364681849#4 1364681849#5 1364681849#6 1364681849#7"/>
    </vehicle>
    <vehicle id="veh56" type="car" depart="28.00">
        <route edges="-749959413#1 746528092#2 746528092#3 802000252#2 802000252#3 802000252#4 802000252#5 1364681849#1 -744238099#5 548373950#6 745188104#0 745188104#1 1364681850#0 1364681850#1 -548373963#6 749999921#0 -749999921#0"/>
    </vehicle>
    <vehicle id="veh57" type="car" depart="28.50">
        <route edges="1177215277 1210908131#4 1266707781 548373950#2 548373950#3 548373950#4 548373950#5 548373950#6 548373950#7 1364681848#0 1364681134#1 1364681851#1 1364681851#2 1364681849#0 -802000252#5 -802000252#4 -802000252#3 801397524"/>
    </vehicle>
    <vehicle id="veh58" type="car" depart="29.00">
        <route edges="805971869#0 805971869#1 805971869#2 805971869#3 548373963#1 548373963#2 548373963#3 548373963#4 548373963#5 548373963#6 1364681134#0 1364681134#1 1364681851#1 1364681851#2 1364681849#0 -802000252#5 -802000252#4 -802000252#3 -802000252#2 -746528092#3 -746528092#2 -746528092#1 -746528092#0 450752220#3"/>
    </vehicle>
    <vehicle id="veh59" type="car" depart="29.50">
        <route edges="450752220#3 802000252#0 802000252#1 802000252#2 802000252#3 802000252#4 802000252#5 1364681849#1 -744238099#5 548373950#6 745188104#0 745188104#1 1364681850#0 1364681850#1 -548373963#6 -548373963#5 -548373963#4"/>
    </vehicle>
    <vehicle id="veh60" type="car" depart="30.00">
        <route edges="1262877731#1 -1262877731#1 -1262877731#0 1195176494 802794950 450752220#1 450752220#2 450752220#3 802000252#0 802000252#1 802000252#2 802000252#3 802000252#4 802000252#5 1364681849#1 -744238099#5 -744238099#4 -744238099#3 -744238099#2 -744238099#1"/>
    </vehicle>
    <vehicle id="veh61" type="car" depart="30.50">
        <route edges="1364681851#0 1364681851#1 1364681851#2 1364681849#0 -802000252#5 -802000252#4 -802000252#3 -802000252#2 -746528092#3 -746528092#2 749959413#1 749959413#2 1305162886"/>
    </vehicle>
    <vehicle id="veh62" type="car" depart="31.00">
        <route edges="802794955 -802794955 -800108281 548373963#5 548373963#6 1364681134#0 1364681134#1 1364681851#1 1364681851#2 1364681849#0 -802000252#5 -802000252#4 -802000252#3 -802000252#2 -802000252#1 -802000252#0 -450752220#3"/>
    </vehicle>
    <vehicle id="veh63" type="car" depart="31.50">
        <route edges="-1210908131#4 1210908131#4 1266707781 548373950#2 548373950#3 548373950#4 548373950#5 548373950#6 548373950#7 1364681848#0 1364681134#1"/>
    </vehicle>
    <vehicle id="veh64" type="car" depart="32.00">
        <route edges="-1305162885 -749959413#3 -749959413#2 -749959413#1 746528092#2 746528092#3 802000252#2 802000252#3 802000252#4 802000252#5 1364681849#1 -744238099#5 548373950#6 745188104#0 745188104#1 1364681850#0 1364681850#1 -548373963#6 749999921#0 749999920#0 -749999920#0"/>
    </vehicle>
    <vehicle id="veh65" type="car" depart="32.50">
        <route edges="746528092#2 746528092#3 802000252#2 802000252#3 802000252#4 802000252#5 1364681849#1 1364681849#2 1364681849#3 1364681849#4 1364681849#5 1266707781 -1266707781"/>
    </vehicle>
    <vehicle id="veh66" type="car" depart="33.00">
        <route edges="749999921#1 -749999921#1 -749999921#0 548373963#6 1364681134#0 1364681134#1 1364681851#1 1364681851#2 1364681849#0 -802000252#5 -802000252#4 -802000252#3 -802000252#2 -802000252#1 -802000252#0 -450752220#3 -450752220#2 -450752220#1 450752220#1 450752220#2"/>
    </vehicle>
    <vehicle id="veh67" type="car" depart="33.50">
        <route edges="-804889484 159463136#2 744238100 744238099#0 744238099#1 744238099#2 744238099#3 744238099#4 548373950#6 548373950#7 1364681848#0 1364681134#1 1364681851#1 1364681851#2 1364681849#0 -802000252#5 -1047765852#0 1047765852#0"/>
    </vehicle>
    <vehicle id="veh68" type="car" depart="34.00">
        <route edges="802794953 -802794953 746528092#3 802000252#2 802000252#3 802000252#4 802000252#5 1364681849#1 -744238099#5 548373950#6 548373950#7 1364681848#0 1364681134#1 1364681851#1 1364681846#0"/>
    </vehicle>
    <vehicle id="veh69" type="car" depart="34.50">
        <route edges="750356550 -750356550 801397525 901028067#2 1364681851#0 1364681851#1 1364681851#2 1364681849#0 1364681849#1 1364681849#2 1364681849#3 1364681849#4 1364681849#5 -1210908131#4 -1210908131#3 -1210908131#2 -1210908131#1 1210908131#1"/>
    </vehicle>
    <vehicle id="veh70" type="car" depart="35.00">
        <route edges="1364681848#1 1364681848#2 763017695#0 763017695#1 548373963#4 548373963#5 548373963#6 1364681134#0 1364681134#1 1364681851#1 1364681851#2 1364681849#0 -802000252#5 -802000252#4 -802000252#3 -802000252#2 -746528092#3 -746528092#2 -746528092#1 -746528091 746528091"/>
    </vehicle>
    <vehicle id="veh71" type="car" depart="35.50">
        <route edges="746528092#1 746528092#2 746528092#3 802000252#2 802000252#3 802000252#4 802000252#5 1364681849#1 -744238099#5 548373950#6 745188104#0 745188104#1 1364681850#0 1364681850#1 -548373963#6 749999921#0 749999920#0"/>
    </vehicle>
    <vehicle id="veh72" type="car" depart="36.00">
        <route edges="-159463136#2 159463136#2 744238100 744238099#0 744238099#1 744238099#2 744238099#3 744238099#4 744238099#5 1364681849#2 1364681849#3 1364681849#4 1364681849#5 -1210908131#4 -1210908131#3 -1210908131#2 -1210908131#1 1305162881#0 1305162881#1 -1305162881#1 -1305162881#0"/>
    </vehicle>
    <vehicle id="veh73" type="car" depart="36.50">
        <route edges="548373963#3 548373963#4 548373963#5 548373963#6 1364681134#0 1364681134#1 1364681851#1 1364681846#0 1364681846#1 745188104#1"/>
    </vehicle>
    <vehicle id="veh74" type="car" depart="37.00">
        <route edges="548373950#5 548373950#6 548373950#7 1364681848#0 1364681134#1 1364681851#1 1364681851#2 1364681849#0 -802000252#5 -802000252#4 -802000252#3 -802000252#2 -746528092#3 -746528092#2 749959413#1 749959413#2 749959413#3"/>
    </vehicle>
    <vehicle id="veh75" type="car" depart="37.50">
        <route edges="1195176494 802794950 450752220#1 450752220#2 450752220#3"/>
    </vehicle>
    <vehicle id="veh76" type="car" depart="38.00">
        <route edges="-744528054#1 -750356550 801397525 901028067#2 1364681851#0 1364681851#1 1364681846#0 1364681846#1 745188104#1 1364681850#0 1364681850#1 -548373963#6 -548373963#5 -548373963#4 -548373963#3 -548373963#2 800108283 -800108283"/>
    </vehicle>
    <vehicle id="veh77" type="car" depart="38.50">
        <route edges="-548373963#2 548373963#2 548373963#3 548373963#4 548373963#5 548373963#6 1364681134#0 1364681134#1 1364681851#1 1364681851#2 1364681849#0 -802000252#5 -802000252#4 -802000252#3 -802000252#2 -802000252#1 -802000252#0 -450752220#3 -450752220#2 -450752220#1 -450752220#0"/>
    </vehicle>
    <vehicle id="veh79" type="car" depart="39.50">
        <route edges="-749999921#0 548373963#6 1364681134#0 1364681134#1 1364681851#1 1364681851#2 1364681849#0 -802000252#5 -802000252#4 -802000252#3 801397524 801397525 901028067#2"/>
    </vehicle>
    <vehicle id="veh80" type="car" depart="40.00">
        <route edges="746528092#0 746528092#1 746528092#2 746528092#3 802000252#2 802000252#3 802000252#4 802000252#5 1364681849#1 -744238099#5 548373950#6 745188104#0 745188104#1 1364681850#0 1364681850#1 -548373963#6 -548373963#5 -548373963#4"/>
    </vehicle>
    <vehicle id="veh81" type="car" depart="40.50">
        <route edges="1193733759#1 1193733759#2 -1305162882 -1305162881#0 1210908131#1 1210908131#2 1210908131#3 1210908131#4 1266707781 548373950#2 548373950#3 548373950#4 548373950#5 548373950#6 745188104#0 745188104#1 1364681850#0 1364681850#1 -548373963#6 -548373963#5 -548373963#4 -548373963#3 -548373963#2 -548373963#1 -548373963#0 548373963#0"/>
    </vehicle>
    <vehicle id="veh82" type="car" depart="41.00">
        <route edges="802000252#4 802000252#5 1364681849#1 1364681849#2 1364681849#3 1364681849#4 1364681849#5 -1210908131#4 -1210908131#3 -1210908131#2 1193733759#0 -1193733759#0"/>
    </vehicle>
    <vehicle id="veh83" type="car" depart="41.50">
        <route edges="750006607 -750006607 -649120019#0 548373950#3 895432952 -895432952"/>
    </vehicle>
    <vehicle id="veh84" type="car" depart="42.00">
        <route edges="-744238099#3 -744238099#2 -744238099#1 -744238099#0 -744238100 -159463136#2 159463136#2 744238100 744238099#0 744238099#1 744238099#2 744238099#3 744238099#4 548373950#6 745188104#0 745188104#1"/>
    </vehicle>
    <vehicle id="veh85" type="car" depart="42.50">
        <route edges="-1305162881#0 1210908131#1 1210908131#2 1210908131#3 1210908131#4 1266707781 548373950#2 548373950#3 548373950#4 548373950#5 -744238099#4 -744238099#3 -744238099#2 -744238099#1 -744238099#0 -744238100 -159463136#2 804889484"/>
    </vehicle>
    <vehicle id="veh86" type="car" depart="43.00">
        <route edges="-802794946#0 802794946#0 802794946#1 -1262877731#0 1195176494 802794950 450752220#1 450752220#2 450752220#3 802000252#0 802000252#1 802000252#2 802000252#3 802000252#4 802000252#5 1364681849#1 -744238099#5 -744238099#4 -744238099#3 -744238099#2 -744238099#1 -744238099#0"/>
    </vehicle>
    <vehicle id="veh87" type="car" depart="43.50">
        <route edges="800108283 -800108283 548373963#2 548373963#3 548373963#4 548373963#5 548373963#6 1364681134#0 1364681134#1 1364681851#1 1364681851#2 1364681849#0 -802000252#5 -802000252#4 -802000252#3 -802000252#2 -802000252#1 -802000252#0 -450752220#3 -450752220#2 -450752220#1 -802794950 -1195176494 1262877731#0 1262877731#1 1195176490 802794948#1"/>
    </vehicle>
    <vehicle id="veh88" type="car" depart="44.00">
        <route edges="-749999920#1 -749999920#0 -749999921#0 548373963#6 1364681134#0 1364681134#1 1364681851#1 1364681851#2 1364681849#0 1364681849#1 -744238099#5 -744238099#4 -744238099#3 -744238099#2 -744238099#1 -744238099#0 -744238100 -159463136#2 804889484"/>
    </vehicle>
    <vehicle id="veh89" type="car" depart="44.50">
        <route edges="-744238099#2 -744238099#1 -744238099#0 -744238100 -159463136#2 159463136#2 744238100 744238099#0 744238099#1 744238099#2 744238099#3 744238099#4 744238099#5 1364681849#2 1364681849#3 1364681849#4 1364681849#5 1266707781 548373950#2 548373950#3 895432952 -895432952"/>
    </vehicle>
    <vehicle id="veh90" type="car" depart="45.00">
        <route edges="-548373963#3 548373963#3 548373963#4 548373963#5 548373963#6 1364681134#0 1364681134#1 1364681851#1 1364681851#2 1364681849#0 -802000252#5 -802000252#4 -802000252#3 -802000252#2 -746528092#3 -746528092#2 -749959413#0 749959413#0"/>
    </vehicle>
    <vehicle id="veh91" type="car" depart="45.50">
        <route edges="-749959413#3 -749959413#2 -749959413#1 746528092#2 746528092#3 802000252#2 802000252#3 802000252#4 802000252#5 1364681849#1 1364681849#2 1364681849#3 1364681849#4 1364681849#5 1266707781 548373950#2 548373950#3 548373950#4 745527904#0 745527904#1 -745527904#1"/>
    </vehicle>
    <vehicle id="veh92" type="car" depart="46.00">
        <route edges="-802794952 1211187479 746528092#3 802000252#2 802000252#3 802000252#4 802000252#5 1364681849#1 1364681849#2 1364681849#3 1364681849#4 1364681849#5 -1210908131#4 -1210908131#3 -1210908131#2"/>
    </vehicle>
    <vehicle id="veh93" type="car" depart="46.50">
        <route edges="1193733759#1 1193733759#2 -1305162882 -1305162881#0 1210908131#1 1210908131#2 1210908131#3 1210908131#4 1266707781 548373950#2 548373950#3 548373950#4 548373950#5 548373950#6 548373950#7 1364681848#0 1364681848#1 1364681848#2 1364681848#3 -800530318 800530318"/>
    </vehicle>
    <vehicle id="veh94" type="car" depart="47.00">
        <route edges="-1305162883 -1193733759#1 -1193733759#0 1210908131#2 1210908131#3 1210908131#4 1266707781 548373950#2 548373950#3 548373950#4 548373950#5 548373950#6 548373950#7 1364681848#0 1364681134#1 1364681851#1 1364681851#2 1364681849#0 -802000252#5 -802000252#4 -802000252#3 -802000252#2 -802000252#1 -802000252#0 -450752220#3 -450752220#2"/>
    </vehicle>
    <vehicle id="veh95" type="car" depart="47.50">
        <route edges="-800108282 548373963#3 548373963#4 548373963#5 548373963#6 1364681134#0 1364681134#1 1364681851#1 1364681851#2 1364681849#0 -802000252#5 -802000252#4 -802000252#3 -802000252#2 -746528092#3 -746528092#2 749959413#1 749959413#2 1305162886 -1305162886"/>
    </vehicle>
    <vehicle id="veh96" type="car" depart="48.00">
        <route edges="749999919#0 -749999919#0 -749999920#0 -749999921#0 548373963#6 1364681134#0 1364681134#1 1364681851#1 1364681851#2 1364681849#0 1364681849#1 1364681849#2 1364681849#3 1364681849#4 1364681849#5 1266707781 548373950#2 649120019#0 649120019#1 -804889483 804889483"/>
    </vehicle>
    <vehicle id="veh98" type="car" depart="49.00">
        <route edges="-749959413#4 -749959413#3 -749959413#2 -749959413#1 746528092#2 746528092#3 802000252#2 802000252#3 802000252#4 802000252#5 1364681849#1 -744238099#5 548373950#6 745188104#0 745188104#1 1364681850#0 1364681850#1 -548373963#6 -548373963#5 -548373963#4 -548373963#3 -548373963#2 -548373963#1 -548373963#0 548373963#0"/>
    </vehicle>
    <vehicle id="veh99" type="car" depart="49.50">
        <route edges="-1305162886 -749959413#2 -749959413#1 746528092#2 746528092#3 802000252#2 802000252#3 802000252#4 802000252#5 1364681849#1 -744238099#5 548373950#6 745188104#0 745188104#1 1364681850#0 1364681850#1 -548373963#6 -548373963#5 -548373963#4 -548373963#3 -548373963#2 -548373963#1 -805971869#3 -805971869#2 -805333889 1111261524"/>
    </vehicle>
    <vehicle id="veh100" type="car" depart="50.00">
        <route edges="1305162882 -1193733759#2 -1193733759#1 1305162884 -1305162884"/>
    </vehicle>
    <vehicle id="veh101" type="car" depart="50.50">
        <route edges="-1193733759#3 -1305162882 -1305162881#0 1210908131#1 1210908131#2 1210908131#3 1210908131#4 1266707781 548373950#2 548373950#3 548373950#4 548373950#5 548373950#6 548373950#7 1364681848#0 1364681134#1 1364681851#1 1364681851#2 1364681849#0 -802000252#5 -802000252#4 -802000252#3 801397524 801397525 901028067#2 1364681851#0"/>
    </vehicle>
    <vehicle id="veh102" type="car" depart="51.00">
        <route edges="749959413#4 -749959413#4 -749959413#3 -749959413#2 -749959413#1 746528092#2 746528092#3 802000252#2 802000252#3 802000252#4 802000252#5 1364681849#1 -744238099#5 -744238099#4 -744238099#3 -744238099#2 -744238099#1 -744238099#0 -744238100 -159463136#2 159463136#2"/>
    </vehicle>
    <vehicle id="veh103" type="car" depart="51.50">
        <route edges="-1210908131#1 1210908131#1 1210908131#2 1210908131#3 1210908131#4 1266707781 548373950#2 548373950#3 548373950#4 548373950#5 548373950#6 548373950#7 1364681846#1"/>
    </vehicle>
    <vehicle id="veh104" type="car" depart="52.00">
        <route edges="-805971869#1 805971869#1 -805333889"/>
    </vehicle>
    <vehicle id="veh106" type="car" depart="53.00">