<?xml version="1.0" encoding="UTF-8"?>

<!-- generated on 2026-03-15 22:49:15 by Eclipse SUMO netconvert Version 1.24.0
<netconvertConfiguration xmlns:xsi="http://www.w3.org/2001/XMLSchema-instance" xsi:noNamespaceSchemaLocation="http://sumo.dlr.de/xsd/netconvertConfiguration.xsd">

    <input>
        <node-files value="map_plain.nod.xml"/>
        <edge-files value="map_plain.edg.xml"/>
    </input>

    <output>
        <output-file value="map.net.xml"/>
    </output>

    <report>
        <no-warnings value="true"/>
    </report>

</netconvertConfiguration>
-->

<net version="1.20" junctionCornerDetail="5" limitTurnSpeed="5.50" xmlns:xsi="http://www.w3.org/2001/XMLSchema-instance" xsi:noNamespaceSchemaLocation="http://sumo.dlr.de/xsd/net_file.xsd">

    <location netOffset="-716957.53,-934460.60" convBoundary="0.00,0.00,4566.05,3990.00" origBoundary="76.970769,8.448574,77.030880,8.576337" projParameter="+proj=utm +zone=43 +ellps=WGS84 +datum=WGS84 +units=m +no_defs"/>

    <edge id=":10168276772_0" function="internal">
        <lane id=":10168276772_0_0" index="0" disallow="tram rail_urban rail rail_electric rail_fast ship container cable_car subway aircraft wheelchair scooter drone" speed="5.56" length="14.49" shape="1547.68,2614.12 1542.36,2627.59"/>
        <lane id=":10168276772_0_1" index="1" disallow="tram rail_urban rail rail_electric rail_fast ship container cable_car subway aircraft wheelchair scooter drone" speed="5.56" length="14.49" shape="1544.71,2612.94 1539.39,2626.42"/>
    </edge>
    <edge id=":10168276772_2" function="internal">
        <lane id=":10168276772_2_0" index="0" disallow="tram rail_urban rail rail_electric rail_fast ship container cable_car subway aircraft wheelchair scooter drone" speed="8.59" length="3.83" shape="1544.71,2612.94 1542.85,2616.11 1542.72,2616.21"/>
    </edge>
    <edge id=":10168276772_3" function="internal">
        <lane id=":10168276772_3_0" index="0" disallow="tram rail_urban rail rail_electric rail_fast ship container cable_car subway aircraft wheelchair scooter drone" speed="3.65" length="1.44" shape="1544.71,2612.94 1543.52,2613.77"/>
    </edge>
    <edge id=":10168276772_10" function="internal">
        <lane id=":10168276772_10_0" index="0" disallow="tram rail_urban rail rail_electric rail_fast ship container cable_car subway aircraft wheelchair scooter drone" speed="8.59" length="10.65" shape="1542.72,2616.21 1540.25,2618.10 1536.91,2618.90 1532.83,2618.52"/>
    </edge>
    <edge id=":10168276772_11" function="internal">
        <lane id=":10168276772_11_0" index="0" disallow="tram rail_urban rail rail_electric rail_fast ship container cable_car subway aircraft wheelchair scooter drone" speed="3.65" length="3.23" shape="1543.52,2613.77 1542.63,2613.84 1542.03,2613.18 1541.73,2611.77"/>
    </edge>
    <edge id=":10168276772_4" function="internal">
        <lane id=":10168276772_4_0" index="0" disallow="tram rail_urban rail rail_electric rail_fast ship container cable_car subway aircraft wheelchair scooter drone" speed="7.20" length="9.90" shape="1533.51,2615.39 1536.37,2615.68 1538.69,2615.17 1540.48,2613.87 1541.73,2611.77"/>
    </edge>
    <edge id=":10168276772_5" function="internal">
        <lane id=":10168276772_5_0" index="0" disallow="tram rail_urban rail rail_electric rail_fast ship container cable_car subway aircraft wheelchair scooter drone" speed="7.74" length="14.84" shape="1533.51,2615.39 1537.41,2616.85 1539.69,2619.18 1540.35,2622.36 1539.39,2626.42"/>
    </edge>
    <edge id=":10168276772_6" function="internal">
        <lane id=":10168276772_6_0" index="0" disallow="tram rail_urban rail rail_electric rail_fast ship container cable_car subway aircraft wheelchair scooter drone" speed="3.65" length="4.67" shape="1533.51,2615.39 1534.51,2616.43 1534.73,2617.29 1534.17,2617.99 1532.83,2618.52"/>
    </edge>
    <edge id=":10168276772_7" function="internal">
        <lane id=":10168276772_7_0" index="0" disallow="tram rail_urban rail rail_electric rail_fast ship container cable_car subway aircraft wheelchair scooter drone" speed="6.19" length="9.05" shape="1536.41,2625.24 1537.00,2622.77 1536.60,2620.83 1535.20,2619.41 1532.83,2618.52"/>
    </edge>
    <edge id=":10168276772_8" function="internal">
        <lane id=":10168276772_8_0" index="0" disallow="tram rail_urban rail rail_electric rail_fast ship container cable_car subway aircraft wheelchair scooter drone" speed="5.56" length="14.48" shape="1536.41,2625.24 1541.73,2611.77"/>
    </edge>
    <edge id=":10168276772_9" function="internal">
        <lane id=":10168276772_9_0" index="0" disallow="tram rail_urban rail rail_electric rail_fast ship container cable_car subway aircraft wheelchair scooter drone" speed="3.65" length="1.44" shape="1536.41,2625.24 1537.60,2624.42"/>
    </edge>
    <edge id=":10168276772_12" function="internal">
        <lane id=":10168276772_12_0" index="0" disallow="tram rail_urban rail rail_electric rail_fast ship container cable_car subway aircraft wheelchair scooter drone" speed="3.65" length="3.23" shape="1537.60,2624.42 1538.49,2624.34 1539.08,2625.01 1539.39,2626.42"/>
    </edge>
    <edge id=":10168276773_0" function="internal">
        <lane id=":10168276773_0_0" index="0" disallow="tram rail_urban rail rail_electric rail_fast ship container cable_car subway aircraft wheelchair scooter drone" speed="3.94" length="2.17" shape="1462.19,2512.91 1461.65,2513.10 1461.26,2513.42 1461.02,2513.86 1460.92,2514.44"/>
    </edge>
    <edge id=":10168276773_1" function="internal">
        <lane id=":10168276773_1_0" index="0" disallow="tram rail_urban rail rail_electric rail_fast ship container cable_car subway aircraft wheelchair scooter drone" speed="6.14" length="6.51" shape="1457.72,2514.37 1458.00,2512.65 1458.73,2511.31 1459.91,2510.35 1461.54,2509.77"/>
    </edge>
    <edge id=":10168276775_0" function="internal">
        <lane id=":10168276775_0_0" index="0" disallow="tram rail_urban rail rail_electric rail_fast ship container cable_car subway aircraft wheelchair scooter drone" speed="3.65" length="4.67" shape="1522.83,2499.70 1524.12,2500.35 1524.62,2501.09 1524.32,2501.94 1523.23,2502.88"/>
    </edge>
    <edge id=":10173164201_0" function="internal">
        <lane id=":10173164201_0_0" index="0" disallow="tram rail_urban rail rail_electric rail_fast ship container cable_car subway aircraft wheelchair scooter drone" speed="3.65" length="4.67" shape="454.88,2678.09 453.44,2677.95 452.71,2677.44 452.68,2676.55 453.36,2675.27"/>
    </edge>
    <edge id=":10173164202_0" function="internal">
        <lane id=":10173164202_0_0" index="0" disallow="tram rail_urban rail rail_electric rail_fast ship container cable_car subway aircraft wheelchair scooter drone" speed="3.65" length="4.67" shape="553.25,2630.92 554.64,2631.30 555.28,2631.93 555.15,2632.81 554.27,2633.96"/>
    </edge>
    <edge id=":10928627923_0" function="internal">
        <lane id=":10928627923_0_0" index="0" disallow="tram rail_urban rail rail_electric rail_fast ship container cable_car subway aircraft wheelchair scooter drone" speed="8.71" length="15.57" shape="738.69,2178.24 737.66,2183.06 735.85,2186.50 733.26,2188.55 729.88,2189.22"/>
    </edge>
    <edge id=":10928627923_1" function="internal">
        <lane id=":10928627923_1_0" index="0" disallow="tram rail_urban rail rail_electric rail_fast ship container cable_car subway aircraft wheelchair scooter drone" speed="6.53" length="8.33" shape="729.92,2182.82 732.15,2182.52 733.83,2181.60 734.95,2180.05 735.52,2177.87"/>
    </edge>
    <edge id=":10928627924_0" function="internal">
        <lane id=":10928627924_0_0" index="0" disallow="tram rail_urban rail rail_electric rail_fast ship container cable_car subway aircraft wheelchair scooter drone" speed="8.59" length="12.38" shape="566.95,2186.96 566.26,2183.85 564.76,2181.38 562.44,2179.55 559.31,2178.35"/>
    </edge>
    <edge id=":10928627924_1" function="internal">
        <lane id=":10928627924_1_0" index="0" disallow="tram rail_urban rail rail_electric rail_fast ship container cable_car subway aircraft wheelchair scooter drone" speed="13.89" length="16.47" shape="566.95,2186.96 565.64,2170.55"/>
    </edge>
    <edge id=":10928627924_2" function="internal">
        <lane id=":10928627924_2_0" index="0" disallow="tram rail_urban rail rail_electric rail_fast ship container cable_car subway aircraft wheelchair scooter drone" speed="7.65" length="4.30" shape="566.95,2186.96 567.21,2182.68"/>
    </edge>
    <edge id=":10928627924_3" function="internal">
        <lane id=":10928627924_3_0" index="0" disallow="tram rail_urban rail rail_electric rail_fast ship container cable_car subway aircraft wheelchair scooter drone" speed="3.65" length="1.44" shape="566.95,2186.96 567.65,2185.70"/>
    </edge>
    <edge id=":10928627924_16" function="internal">
        <lane id=":10928627924_16_0" index="0" disallow="tram rail_urban rail rail_electric rail_fast ship container cable_car subway aircraft wheelchair scooter drone" speed="7.65" length="10.84" shape="567.21,2182.68 568.81,2179.82 571.76,2178.40 576.05,2178.41"/>
    </edge>
    <edge id=":10928627924_17" function="internal">
        <lane id=":10928627924_17_0" index="0" disallow="tram rail_urban rail rail_electric rail_fast ship container cable_car subway aircraft wheelchair scooter drone" speed="3.65" length="3.23" shape="567.65,2185.70 568.41,2185.24 569.24,2185.57 570.14,2186.70"/>
    </edge>
    <edge id=":10928627924_4" function="internal">
        <lane id=":10928627924_4_0" index="0" disallow="tram rail_urban rail rail_electric rail_fast ship container cable_car subway aircraft wheelchair scooter drone" speed="6.07" length="9.07" shape="575.59,2181.57 573.02,2181.57 571.25,2182.42 570.30,2184.13 570.14,2186.70"/>
    </edge>
    <edge id=":10928627924_5" function="internal">
        <lane id=":10928627924_5_0" index="0" disallow="tram rail_urban rail rail_electric rail_fast ship container cable_car subway aircraft wheelchair scooter drone" speed="13.89" length="16.60" shape="575.59,2181.57 571.64,2180.93 567.42,2180.14 563.21,2179.26 559.31,2178.35"/>
    </edge>
    <edge id=":10928627924_6" function="internal">
        <lane id=":10928627924_6_0" index="0" disallow="tram rail_urban rail rail_electric rail_fast ship container cable_car subway aircraft wheelchair scooter drone" speed="9.30" length="16.23" shape="575.59,2181.57 571.52,2180.38 568.50,2178.14 566.54,2174.87 565.64,2170.55"/>
    </edge>
    <edge id=":10928627924_7" function="internal">
        <lane id=":10928627924_7_0" index="0" disallow="tram rail_urban rail rail_electric rail_fast ship container cable_car subway aircraft wheelchair scooter drone" speed="3.65" length="4.67" shape="575.59,2181.57 574.52,2180.61 574.24,2179.76 574.75,2179.02 576.05,2178.41"/>
    </edge>
    <edge id=":10928627924_8" function="internal">
        <lane id=":10928627924_8_0" index="0" disallow="tram rail_urban rail rail_electric rail_fast ship container cable_car subway aircraft wheelchair scooter drone" speed="8.02" length="11.86" shape="568.83,2170.30 569.49,2173.48 570.91,2175.89 573.10,2177.53 576.05,2178.41"/>
    </edge>
    <edge id=":10928627924_9" function="internal">
        <lane id=":10928627924_9_0" index="0" disallow="tram rail_urban rail rail_electric rail_fast ship container cable_car subway aircraft wheelchair scooter drone" speed="13.89" length="16.45" shape="568.83,2170.30 570.14,2186.70"/>
    </edge>
    <edge id=":10928627924_10" function="internal">
        <lane id=":10928627924_10_0" index="0" disallow="tram rail_urban rail rail_electric rail_fast ship container cable_car subway aircraft wheelchair scooter drone" speed="7.55" length="4.49" shape="568.83,2170.30 568.54,2174.79"/>
    </edge>
    <edge id=":10928627924_11" function="internal">
        <lane id=":10928627924_11_0" index="0" disallow="tram rail_urban rail rail_electric rail_fast ship container cable_car subway aircraft wheelchair scooter drone" speed="3.65" length="1.44" shape="568.83,2170.30 568.13,2171.56"/>
    </edge>
    <edge id=":10928627924_18" function="internal">
        <lane id=":10928627924_18_0" index="0" disallow="tram rail_urban rail rail_electric rail_fast ship container cable_car subway aircraft wheelchair scooter drone" speed="7.55" length="11.09" shape="568.54,2174.79 566.86,2177.62 563.78,2178.81 559.31,2178.35"/>
    </edge>
    <edge id=":10928627924_19" function="internal">
        <lane id=":10928627924_19_0" index="0" disallow="tram rail_urban rail rail_electric rail_fast ship container cable_car subway aircraft wheelchair scooter drone" speed="3.65" length="3.23" shape="568.13,2171.56 567.36,2172.02 566.53,2171.68 565.64,2170.55"/>
    </edge>
    <edge id=":10928627924_12" function="internal">
        <lane id=":10928627924_12_0" index="0" disallow="tram rail_urban rail rail_electric rail_fast ship container cable_car subway aircraft wheelchair scooter drone" speed="5.93" length="9.10" shape="560.08,2175.24 562.69,2175.51 564.49,2174.82 565.47,2173.16 565.64,2170.55"/>
    </edge>
    <edge id=":10928627924_13" function="internal">
        <lane id=":10928627924_13_0" index="0" disallow="tram rail_urban rail rail_electric rail_fast ship container cable_car subway aircraft wheelchair scooter drone" speed="13.89" length="16.29" shape="560.08,2175.24 563.93,2176.15 568.03,2177.01 572.15,2177.78 576.05,2178.41"/>
    </edge>
    <edge id=":10928627924_14" function="internal">
        <lane id=":10928627924_14_0" index="0" disallow="tram rail_urban rail rail_electric rail_fast ship container cable_car subway aircraft wheelchair scooter drone" speed="9.81" length="16.39" shape="560.08,2175.24 564.20,2176.83 567.25,2179.26 569.23,2182.55 570.14,2186.70"/>
    </edge>
    <edge id=":10928627924_15" function="internal">
        <lane id=":10928627924_15_0" index="0" disallow="tram rail_urban rail rail_electric rail_fast ship container cable_car subway aircraft wheelchair scooter drone" speed="3.65" length="4.67" shape="560.08,2175.24 561.06,2176.31 561.25,2177.18 560.67,2177.86 559.31,2178.35"/>
    </edge>
    <edge id=":10936666419_0" function="internal">
        <lane id=":10936666419_0_0" index="0" disallow="tram rail_urban rail rail_electric rail_fast ship container cable_car subway aircraft wheelchair scooter drone" speed="27.78" length="8.32" shape="720.83,2720.68 714.38,2725.93"/>
        <lane id=":10936666419_0_1" index="1" disallow="tram rail_urban rail rail_electric rail_fast ship container cable_car subway aircraft wheelchair scooter drone" speed="27.78" length="8.32" shape="718.81,2718.20 712.36,2723.45"/>
        <lane id=":10936666419_0_2" index="2" disallow="tram rail_urban rail rail_electric rail_fast ship container cable_car subway aircraft wheelchair scooter drone" speed="27.78" length="8.32" shape="716.78,2715.72 710.33,2720.97"/>
    </edge>
    <edge id=":10936666419_3" function="internal">
        <lane id=":10936666419_3_0" index="0" disallow="tram rail_urban rail rail_electric rail_fast ship container cable_car subway aircraft wheelchair scooter drone" speed="12.48" length="9.38" shape="713.42,2713.58 713.29,2716.72 713.88,2719.15 713.97,2721.26 712.36,2723.45"/>
        <lane id=":10936666419_3_1" index="1" disallow="tram rail_urban rail rail_electric rail_fast ship container cable_car subway aircraft wheelchair scooter drone" speed="11.14" length="9.38" shape="713.42,2713.58 712.97,2716.02 712.68,2717.79 711.99,2719.30 710.33,2720.97"/>
    </edge>
    <edge id=":10936666422_0" function="internal">
        <lane id=":10936666422_0_0" index="0" disallow="tram rail_urban rail rail_electric rail_fast ship container cable_car subway aircraft wheelchair scooter drone" speed="5.54" length="11.29" shape="722.06,2694.15 719.52,2691.22 717.88,2690.56 717.14,2692.16 717.29,2696.04"/>
    </edge>
    <edge id=":10936666422_1" function="internal">
        <lane id=":10936666422_1_0" index="0" disallow="tram rail_urban rail rail_electric rail_fast ship container cable_car subway aircraft wheelchair scooter drone" speed="27.78" length="15.26" shape="722.06,2694.15 713.04,2681.85"/>
    </edge>
    <edge id=":10936666422_2" function="internal">
        <lane id=":10936666422_2_0" index="0" disallow="tram rail_urban rail rail_electric rail_fast ship container cable_car subway aircraft wheelchair scooter drone" speed="3.65" length="1.44" shape="722.06,2694.15 721.99,2692.71"/>
    </edge>
    <edge id=":10936666422_9" function="internal">
        <lane id=":10936666422_9_0" index="0" disallow="tram rail_urban rail rail_electric rail_fast ship container cable_car subway aircraft wheelchair scooter drone" speed="3.65" length="3.23" shape="721.99,2692.71 722.40,2691.92 723.29,2691.77 724.64,2692.26"/>
    </edge>
    <edge id=":10936666422_3" function="internal">
        <lane id=":10936666422_3_0" index="0" disallow="tram rail_urban rail rail_electric rail_fast ship container cable_car subway aircraft wheelchair scooter drone" speed="5.71" length="11.53" shape="726.78,2686.29 723.46,2685.66 722.00,2686.44 722.39,2688.64 724.64,2692.26"/>
    </edge>
    <edge id=":10936666422_4" function="internal">
        <lane id=":10936666422_4_0" index="0" disallow="tram rail_urban rail rail_electric rail_fast ship container cable_car subway aircraft wheelchair scooter drone" speed="7.77" length="17.65" shape="726.78,2686.29 722.03,2685.59 718.87,2686.98 717.29,2690.46 717.29,2696.04"/>
    </edge>
    <edge id=":10936666422_5" function="internal">
        <lane id=":10936666422_5_0" index="0" disallow="tram rail_urban rail rail_electric rail_fast ship container cable_car subway aircraft wheelchair scooter drone" speed="14.96" length="14.75" shape="726.78,2686.29 723.04,2685.53 719.23,2685.02 715.76,2684.03 713.04,2681.85"/>
    </edge>
    <edge id=":10936666422_6" function="internal">
        <lane id=":10936666422_6_0" index="0" disallow="tram rail_urban rail rail_electric rail_fast ship container cable_car subway aircraft wheelchair scooter drone" speed="27.78" length="15.25" shape="715.62,2679.96 724.64,2692.26"/>
    </edge>
    <edge id=":10936666422_7" function="internal">
        <lane id=":10936666422_7_0" index="0" disallow="tram rail_urban rail rail_electric rail_fast ship container cable_car subway aircraft wheelchair scooter drone" speed="19.02" length="2.97" shape="715.62,2679.96 716.73,2682.71"/>
    </edge>
    <edge id=":10936666422_8" function="internal">
        <lane id=":10936666422_8_0" index="0" disallow="tram rail_urban rail rail_electric rail_fast ship container cable_car subway aircraft wheelchair scooter drone" speed="3.65" length="1.44" shape="715.62,2679.96 715.68,2681.40"/>
    </edge>
    <edge id=":10936666422_10" function="internal">
        <lane id=":10936666422_10_0" index="0" disallow="tram rail_urban rail rail_electric rail_fast ship container cable_car subway aircraft wheelchair scooter drone" speed="19.02" length="13.40" shape="716.73,2682.71 717.04,2683.47 717.34,2687.65 717.19,2692.00 717.29,2696.04"/>
    </edge>
    <edge id=":10936666422_11" function="internal">
        <lane id=":10936666422_11_0" index="0" disallow="tram rail_urban rail rail_electric rail_fast ship container cable_car subway aircraft wheelchair scooter drone" speed="3.65" length="3.23" shape="715.68,2681.40 715.27,2682.20 714.39,2682.35 713.04,2681.85"/>
    </edge>
    <edge id=":10936666425_0" function="internal">
        <lane id=":10936666425_0_0" index="0" disallow="tram rail_urban rail rail_electric rail_fast ship container cable_car subway aircraft wheelchair scooter drone" speed="27.78" length="14.58" shape="762.24,2686.99 750.93,2696.18"/>
        <lane id=":10936666425_0_1" index="1" disallow="tram rail_urban rail rail_electric rail_fast ship container cable_car subway aircraft wheelchair scooter drone" speed="27.78" length="14.58" shape="760.22,2684.50 748.91,2693.70"/>
        <lane id=":10936666425_0_2" index="2" disallow="tram rail_urban rail rail_electric rail_fast ship container cable_car subway aircraft wheelchair scooter drone" speed="27.78" length="14.58" shape="758.21,2682.02 746.89,2691.21"/>
    </edge>
    <edge id=":10936666425_3" function="internal">
        <lane id=":10936666425_3_0" index="0" disallow="tram rail_urban rail rail_electric rail_fast ship container cable_car subway aircraft wheelchair scooter drone" speed="18.10" length="14.45" shape="758.21,2682.02 754.48,2684.50 751.27,2685.65 748.17,2686.12 744.77,2686.57"/>
    </edge>
    <edge id=":10936666446_0" function="internal">
        <lane id=":10936666446_0_0" index="0" allow="pedestrian delivery bicycle" speed="3.65" length="4.67" shape="971.92,2433.49 971.99,2432.05 972.47,2431.30 973.36,2431.23 974.66,2431.85"/>
    </edge>
    <edge id=":10936666447_0" function="internal">
        <lane id=":10936666447_0_0" index="0" disallow="tram rail_urban rail rail_electric rail_fast ship container cable_car subway aircraft wheelchair scooter drone" speed="27.78" length="9.43" shape="1011.46,2486.00 1003.87,2491.61"/>
        <lane id=":10936666447_0_1" index="1" disallow="tram rail_urban rail rail_electric rail_fast ship container cable_car subway aircraft wheelchair scooter drone" speed="27.78" length="9.43" shape="1009.56,2483.43 1001.97,2489.04"/>
        <lane id=":10936666447_0_2" index="2" disallow="tram rail_urban rail rail_electric rail_fast ship container cable_car subway aircraft wheelchair scooter drone" speed="27.78" length="9.43" shape="1007.65,2480.86 1000.07,2486.47"/>
    </edge>
    <edge id=":10936666447_3" function="internal">
        <lane id=":10936666447_3_0" index="0" allow="pedestrian delivery bicycle" speed="5.98" length="8.04" shape="1007.65,2480.86 1005.26,2482.35 1003.29,2482.98 1001.73,2482.74 1000.61,2481.63"/>
    </edge>
    <edge id=":10936666447_4" function="internal">
        <lane id=":10936666447_4_0" index="0" allow="pedestrian delivery bicycle" speed="7.13" length="10.21" shape="1003.35,2479.99 1004.51,2482.65 1004.67,2485.04 1003.82,2487.17 1001.97,2489.04"/>
        <lane id=":10936666447_4_1" index="1" allow="pedestrian delivery bicycle" speed="6.36" length="7.94" shape="1003.35,2479.99 1003.78,2481.45 1003.37,2483.02 1002.13,2484.69 1000.07,2486.47"/>
    </edge>
    <edge id=":10936666447_6" function="internal">
        <lane id=":10936666447_6_0" index="0" allow="pedestrian delivery bicycle" speed="3.65" length="4.67" shape="1003.35,2479.99 1003.28,2481.44 1002.80,2482.19 1001.91,2482.25 1000.61,2481.63"/>
    </edge>
    <edge id=":11080736311_0" function="internal">
        <lane id=":11080736311_0_0" index="0" disallow="tram rail_urban rail rail_electric rail_fast ship container cable_car subway aircraft wheelchair scooter drone" speed="27.78" length="10.22" shape="597.34,2525.67 591.59,2517.22"/>
    </edge>
    <edge id=":11080736311_1" function="internal">
        <lane id=":11080736311_1_0" index="0" disallow="tram rail_urban rail rail_electric rail_fast ship container cable_car subway aircraft wheelchair scooter drone" speed="7.06" length="2.20" shape="597.34,2525.67 596.62,2523.59"/>
    </edge>
    <edge id=":11080736311_2" function="internal">
        <lane id=":11080736311_2_0" index="0" disallow="tram rail_urban rail rail_electric rail_fast ship container cable_car subway aircraft wheelchair scooter drone" speed="3.65" length="1.44" shape="597.34,2525.67 597.33,2524.23"/>
    </edge>
    <edge id=":11080736311_9" function="internal">
        <lane id=":11080736311_9_0" index="0" disallow="tram rail_urban rail rail_electric rail_fast ship container cable_car subway aircraft wheelchair scooter drone" speed="7.06" length="9.15" shape="596.62,2523.59 597.23,2521.45 599.17,2519.24 602.44,2516.96"/>
    </edge>
    <edge id=":11080736311_10" function="internal">
        <lane id=":11080736311_10_0" index="0" disallow="tram rail_urban rail rail_electric rail_fast ship container cable_car subway aircraft wheelchair scooter drone" speed="3.65" length="3.23" shape="597.33,2524.23 597.77,2523.44 598.65,2523.32 599.99,2523.87"/>
    </edge>
    <edge id=":11080736311_3" function="internal">
        <lane id=":11080736311_3_0" index="0" disallow="tram rail_urban rail rail_electric rail_fast ship container cable_car subway aircraft wheelchair scooter drone" speed="5.39" length="6.16" shape="604.06,2519.72 601.96,2521.06 600.58,2522.20 599.92,2523.14 599.99,2523.87"/>
    </edge>
    <edge id=":11080736311_4" function="internal">
        <lane id=":11080736311_4_0" index="0" disallow="tram rail_urban rail rail_electric rail_fast ship container cable_car subway aircraft wheelchair scooter drone" speed="8.23" length="14.29" shape="604.06,2519.72 600.40,2521.26 597.10,2521.35 594.16,2520.01 591.59,2517.22"/>
    </edge>
    <edge id=":11080736311_5" function="internal">
        <lane id=":11080736311_5_0" index="0" disallow="tram rail_urban rail rail_electric rail_fast ship container cable_car subway aircraft wheelchair scooter drone" speed="3.65" length="4.67" shape="604.06,2519.72 602.62,2519.64 601.87,2519.15 601.81,2518.26 602.44,2516.96"/>
    </edge>
    <edge id=":11080736311_6" function="internal">
        <lane id=":11080736311_6_0" index="0" disallow="tram rail_urban rail rail_electric rail_fast ship container cable_car subway aircraft wheelchair scooter drone" speed="6.78" length="9.38" shape="594.24,2515.42 595.91,2517.22 597.83,2518.08 600.01,2517.99 602.44,2516.96"/>
    </edge>
    <edge id=":11080736311_7" function="internal">
        <lane id=":11080736311_7_0" index="0" disallow="tram rail_urban rail rail_electric rail_fast ship container cable_car subway aircraft wheelchair scooter drone" speed="27.78" length="10.22" shape="594.24,2515.42 599.99,2523.87"/>
    </edge>
    <edge id=":11080736311_8" function="internal">
        <lane id=":11080736311_8_0" index="0" disallow="tram rail_urban rail rail_electric rail_fast ship container cable_car subway aircraft wheelchair scooter drone" speed="3.65" length="1.44" shape="594.24,2515.42 594.25,2516.86"/>
    </edge>
    <edge id=":11080736311_11" function="internal">
        <lane id=":11080736311_11_0" index="0" disallow="tram rail_urban rail rail_electric rail_fast ship container cable_car subway aircraft wheelchair scooter drone" speed="3.65" length="3.23" shape="594.25,2516.86 593.81,2517.64 592.93,2517.76 591.59,2517.22"/>
    </edge>
    <edge id=":11080736317_0" function="internal">
        <lane id=":11080736317_0_0" index="0" disallow="tram rail_urban rail rail_electric rail_fast ship container cable_car subway aircraft wheelchair scooter drone" speed="9.12" length="10.82" shape="667.52,2428.66 666.17,2424.91 664.84,2422.14 663.52,2420.35 662.21,2419.53"/>
    </edge>
    <edge id=":11080736317_1" function="internal">
        <lane id=":11080736317_1_0" index="0" disallow="tram rail_urban rail rail_electric rail_fast ship container cable_car subway aircraft wheelchair scooter drone" speed="7.39" length="17.08" shape="667.52,2428.66 666.60,2423.57 667.69,2420.38 670.81,2419.10 675.94,2419.73"/>
    </edge>
    <edge id=":11080736317_2" function="internal">
        <lane id=":11080736317_2_0" index="0" disallow="tram rail_urban rail rail_electric rail_fast ship container cable_car subway aircraft wheelchair scooter drone" speed="3.65" length="4.67" shape="667.52,2428.66 667.92,2427.27 668.56,2426.64 669.44,2426.78 670.57,2427.68"/>
    </edge>
    <edge id=":11080736317_3" function="internal">
        <lane id=":11080736317_3_0" index="0" disallow="tram rail_urban rail rail_electric rail_fast ship container cable_car subway aircraft wheelchair scooter drone" speed="5.63" length="9.28" shape="675.15,2422.83 672.36,2422.49 670.66,2423.18 670.07,2424.91 670.57,2427.68"/>
    </edge>
    <edge id=":11080736317_4" function="internal">
        <lane id=":11080736317_4_0" index="0" disallow="tram rail_urban rail rail_electric rail_fast ship container cable_car subway aircraft wheelchair scooter drone" speed="13.89" length="13.35" shape="675.15,2422.83 662.21,2419.53"/>
    </edge>
    <edge id=":11080736317_5" function="internal">
        <lane id=":11080736317_5_0" index="0" disallow="tram rail_urban rail rail_electric rail_fast ship container cable_car subway aircraft wheelchair scooter drone" speed="3.65" length="1.44" shape="675.15,2422.83 674.18,2421.75"/>
    </edge>
    <edge id=":11080736317_9" function="internal">
        <lane id=":11080736317_9_0" index="0" disallow="tram rail_urban rail rail_electric rail_fast ship container cable_car subway aircraft wheelchair scooter drone" speed="3.65" length="3.23" shape="674.18,2421.75 674.00,2420.88 674.58,2420.20 675.94,2419.73"/>
    </edge>
    <edge id=":11080736317_6" function="internal">
        <lane id=":11080736317_6_0" index="0" disallow="tram rail_urban rail rail_electric rail_fast ship container cable_car subway aircraft wheelchair scooter drone" speed="13.89" length="13.38" shape="662.98,2416.43 675.94,2419.73"/>
    </edge>
    <edge id=":11080736317_7" function="internal">
        <lane id=":11080736317_7_0" index="0" disallow="tram rail_urban rail rail_electric rail_fast ship container cable_car subway aircraft wheelchair scooter drone" speed="10.32" length="2.58" shape="662.98,2416.43 665.08,2417.53 665.21,2417.69"/>
    </edge>
    <edge id=":11080736317_8" function="internal">
        <lane id=":11080736317_8_0" index="0" disallow="tram rail_urban rail rail_electric rail_fast ship container cable_car subway aircraft wheelchair scooter drone" speed="3.65" length="1.44" shape="662.98,2416.43 663.95,2417.49"/>
    </edge>
    <edge id=":11080736317_10" function="internal">
        <lane id=":11080736317_10_0" index="0" disallow="tram rail_urban rail rail_electric rail_fast ship container cable_car subway aircraft wheelchair scooter drone" speed="10.32" length="11.45" shape="665.21,2417.69 667.04,2419.78 668.87,2423.16 670.57,2427.68"/>
    </edge>
    <edge id=":11080736317_11" function="internal">