<?xml version="1.0" encoding="UTF-8"?>

<!-- generated on 2026-03-15 22:36:04 by Eclipse SUMO netconvert Version 1.24.0
<netconvertConfiguration xmlns:xsi="http://www.w3.org/2001/XMLSchema-instance" xsi:noNamespaceSchemaLocation="http://sumo.dlr.de/xsd/netconvertConfiguration.xsd">

    <input>
        <sumo-net-file value="map.net.xml"/>
    </input>

    <output>
        <plain-output-prefix value="map_plain"/>
    </output>

    <processing>
        <geometry.min-radius.fix.railways value="false"/>
        <geometry.avoid-overlap value="false"/>
        <geometry.max-grade.fix value="false"/>
        <offset.disable-normalization value="true"/>
        <lefthand value="0"/>
    </processing>

    <junctions>
        <no-turnarounds value="true"/>
        <junctions.corner-detail value="5"/>
        <junctions.limit-turn-speed value="5.50"/>
        <rectangular-lane-cut value="0"/>
    </junctions>

    <pedestrian>
        <walkingareas value="0"/>
    </pedestrian>

</netconvertConfiguration>
-->

<connections version="1.20" xmlns:xsi="http://www.w3.org/2001/XMLSchema-instance" xsi:noNamespaceSchemaLocation="http://sumo.dlr.de/xsd/connections_file.xsd">
    <connection from="-1047765851" to="1047765851" fromLane="0" toLane="0"/>

    <connection from="-1047765852#0" to="1047765852#0" fromLane="0" toLane="0"/>

    <connection from="-1047765852#1" to="802000252#5" fromLane="0" toLane="0"/>
    <connection from="-1047765852#1" to="-1047765852#0" fromLane="0" toLane="0"/>
    <connection from="-1047765852#1" to="-802000252#4" fromLane="0" toLane="0"/>
    <connection from="-1047765852#1" to="1047765852#1" fromLane="0" toLane="0"/>

    <connection from="-1063778797" to="-744240848#1" fromLane="0" toLane="0"/>

    <connection from="-1094107491" to="763019925#2" fromLane="0" toLane="0"/>
    <connection from="-1094107491" to="-763019925#1" fromLane="0" toLane="0"/>
    <connection from="-1094107491" to="1094107491" fromLane="0" toLane="0"/>

    <connection from="-1111261524" to="805333889" fromLane="0" toLane="0"/>

    <connection from="-1111977558" to="1111977558" fromLane="0" toLane="0"/>

    <connection from="-1177215282" to="1364681849#3" fromLane="0" toLane="1"/>
    <connection from="-1177215282" to="1364681849#3" fromLane="0" toLane="2"/>
    <connection from="-1177215282" to="1177215282" fromLane="0" toLane="0"/>

    <connection from="-1193733759#0" to="1210908131#8" fromLane="0" toLane="0"/>
    <connection from="-1193733759#0" to="-1210908131#7" fromLane="0" toLane="0"/>
    <connection from="-1193733759#0" to="1193733759#0" fromLane="0" toLane="0"/>

    <connection from="-1193733759#1" to="1305162884" fromLane="0" toLane="0"/>
    <connection from="-1193733759#1" to="-1193733759#0" fromLane="0" toLane="0"/>
    <connection from="-1193733759#1" to="1193733759#1" fromLane="0" toLane="0"/>

    <connection from="-1193733759#2" to="1305162883" fromLane="0" toLane="0"/>
    <connection from="-1193733759#2" to="-1193733759#1" fromLane="0" toLane="0"/>
    <connection from="-1193733759#2" to="1193733759#2" fromLane="0" toLane="0"/>

    <connection from="-1193733759#3" to="-1193733759#2" fromLane="0" toLane="0"/>
    <connection from="-1193733759#3" to="-1305162882" fromLane="0" toLane="0"/>
    <connection from="-1193733759#3" to="1193733759#3" fromLane="0" toLane="0"/>

    <connection from="-1195176490" to="-1262877731#1" fromLane="0" toLane="0"/>
    <connection from="-1195176490" to="1262877731#2" fromLane="0" toLane="0"/>
    <connection from="-1195176490" to="1195176490" fromLane="0" toLane="0"/>

    <connection from="-1195176494" to="1262877731#0" fromLane="0" toLane="0"/>

    <connection from="-1195176789" to="-802794959#0" fromLane="0" toLane="0"/>
    <connection from="-1195176789" to="802794959#1" fromLane="0" toLane="0"/>
    <connection from="-1195176789" to="1195176789" fromLane="0" toLane="0"/>

    <connection from="-1195177019#0" to="802794948#2" fromLane="0" toLane="0"/>
    <connection from="-1195177019#0" to="-802794948#1" fromLane="0" toLane="0"/>
    <connection from="-1195177019#0" to="1195177019#0" fromLane="0" toLane="0"/>

    <connection from="-1195177019#1" to="-1195177019#0" fromLane="0" toLane="0"/>
    <connection from="-1195177019#1" to="1211182611#0" fromLane="0" toLane="0"/>
    <connection from="-1195177019#1" to="1195177019#1" fromLane="0" toLane="0"/>

    <connection from="-1195238755" to="-745527903" fromLane="0" toLane="0"/>

    <connection from="-1195269934" to="1195269934" fromLane="0" toLane="0"/>

    <connection from="-1210908131#0" to="1210908131#0" fromLane="0" toLane="0"/>

    <connection from="-1210908131#1" to="-1210908131#0" fromLane="0" toLane="0"/>
    <connection from="-1210908131#1" to="744240849" fromLane="0" toLane="0"/>
    <connection from="-1210908131#1" to="1210908131#1" fromLane="0" toLane="0"/>

    <connection from="-1210908131#10" to="1177215276" fromLane="0" toLane="0"/>
    <connection from="-1210908131#10" to="-1210908131#9" fromLane="0" toLane="0"/>
    <connection from="-1210908131#10" to="1210908131#10" fromLane="0" toLane="0"/>

    <connection from="-1210908131#2" to="-1210908131#1" fromLane="0" toLane="0"/>
    <connection from="-1210908131#2" to="-1063778797" fromLane="0" toLane="0"/>
    <connection from="-1210908131#2" to="1210908131#2" fromLane="0" toLane="0"/>

    <connection from="-1210908131#3" to="1211178731" fromLane="0" toLane="0"/>
    <connection from="-1210908131#3" to="-1210908131#2" fromLane="0" toLane="0"/>
    <connection from="-1210908131#3" to="1210908131#3" fromLane="0" toLane="0"/>

    <connection from="-1210908131#4" to="1305162880" fromLane="0" toLane="0"/>
    <connection from="-1210908131#4" to="-1210908131#3" fromLane="0" toLane="0"/>
    <connection from="-1210908131#4" to="1210908131#4" fromLane="0" toLane="0"/>

    <connection from="-1210908131#5" to="-1210908131#4" fromLane="0" toLane="0"/>
    <connection from="-1210908131#5" to="1211179126" fromLane="0" toLane="0"/>
    <connection from="-1210908131#5" to="1210908131#5" fromLane="0" toLane="0"/>

    <connection from="-1210908131#6" to="1305162879" fromLane="0" toLane="0"/>
    <connection from="-1210908131#6" to="-1210908131#5" fromLane="0" toLane="0"/>
    <connection from="-1210908131#6" to="1210908131#6" fromLane="0" toLane="0"/>

    <connection from="-1210908131#7" to="-1210908131#6" fromLane="0" toLane="0"/>
    <connection from="-1210908131#7" to="1305162881#0" fromLane="0" toLane="0"/>
    <connection from="-1210908131#7" to="1210908131#7" fromLane="0" toLane="0"/>

    <connection from="-1210908131#8" to="-1210908131#7" fromLane="0" toLane="0"/>
    <connection from="-1210908131#8" to="1193733759#0" fromLane="0" toLane="0"/>
    <connection from="-1210908131#8" to="1210908131#8" fromLane="0" toLane="0"/>

    <connection from="-1210908131#9" to="744796384" fromLane="0" toLane="0"/>
    <connection from="-1210908131#9" to="-1210908131#8" fromLane="0" toLane="0"/>
    <connection from="-1210908131#9" to="1210908131#9" fromLane="0" toLane="0"/>

    <connection from="-1211178731" to="-1210908131#2" fromLane="0" toLane="0"/>
    <connection from="-1211178731" to="1210908131#3" fromLane="0" toLane="0"/>
    <connection from="-1211178731" to="1211178731" fromLane="0" toLane="0"/>

    <connection from="-1211179126" to="1210908131#5" fromLane="0" toLane="0"/>
    <connection from="-1211179126" to="-1210908131#4" fromLane="0" toLane="0"/>
    <connection from="-1211179126" to="1211179126" fromLane="0" toLane="0"/>

    <connection from="-1211179298" to="-805333888#0" fromLane="0" toLane="0"/>
    <connection from="-1211179298" to="805333888#1" fromLane="0" toLane="0"/>
    <connection from="-1211179298" to="1211179298" fromLane="0" toLane="0"/>

    <connection from="-1211179299" to="-805333888#1" fromLane="0" toLane="0"/>
    <connection from="-1211179299" to="805333888#2" fromLane="0" toLane="0"/>
    <connection from="-1211179299" to="1211179299" fromLane="0" toLane="0"/>

    <connection from="-1211182050" to="1211182050" fromLane="0" toLane="0"/>

    <connection from="-1211182611#0" to="1195177019#1" fromLane="0" toLane="0"/>
    <connection from="-1211182611#0" to="-1195177019#0" fromLane="0" toLane="0"/>
    <connection from="-1211182611#0" to="1211182611#0" fromLane="0" toLane="0"/>

    <connection from="-1211182611#1" to="-1211182050" fromLane="0" toLane="0"/>
    <connection from="-1211182611#1" to="-1211182611#0" fromLane="0" toLane="0"/>
    <connection from="-1211182611#1" to="1211182611#1" fromLane="0" toLane="0"/>

    <connection from="-1211182611#2" to="1305162893" fromLane="0" toLane="0"/>
    <connection from="-1211182611#2" to="-1211182611#1" fromLane="0" toLane="0"/>
    <connection from="-1211182611#2" to="1211182611#2" fromLane="0" toLane="0"/>

    <connection from="-1211182612" to="807994455#1" fromLane="0" toLane="0"/>
    <connection from="-1211182612" to="802794946#0" fromLane="0" toLane="0"/>
    <connection from="-1211182612" to="-807994455#0" fromLane="0" toLane="0"/>
    <connection from="-1211182612" to="1211182612" fromLane="0" toLane="0"/>

    <connection from="-1211184266" to="-1211184270" fromLane="0" toLane="0"/>

    <connection from="-1211184269" to="749392248#4" fromLane="0" toLane="0"/>
    <connection from="-1211184269" to="-749392248#3" fromLane="0" toLane="0"/>
    <connection from="-1211184269" to="1211184269" fromLane="0" toLane="0"/>

    <connection from="-1211184270" to="-1211184269" fromLane="0" toLane="0"/>

    <connection from="-1211187479" to="802794952" fromLane="0" toLane="0"/>

    <connection from="-1211203284" to="802794960#1" fromLane="0" toLane="0"/>
    <connection from="-1211203284" to="-802794960#0" fromLane="0" toLane="0"/>
    <connection from="-1211203284" to="1211203284" fromLane="0" toLane="0"/>

    <connection from="-1211206496" to="-744238099#3" fromLane="0" toLane="0"/>
    <connection from="-1211206496" to="744238099#4" fromLane="0" toLane="0"/>
    <connection from="-1211206496" to="1211206496" fromLane="0" toLane="0"/>

    <connection from="-1211218242" to="749999919#1" fromLane="0" toLane="0"/>
    <connection from="-1211218242" to="-749999919#0" fromLane="0" toLane="0"/>
    <connection from="-1211218242" to="1211218242" fromLane="0" toLane="0"/>

    <connection from="-1211218243" to="548373963#6" fromLane="0" toLane="0"/>
    <connection from="-1211218243" to="-548373963#5" fromLane="0" toLane="0"/>
    <connection from="-1211218243" to="1211218243" fromLane="0" toLane="0"/>

    <connection from="-1211218982" to="763017695#1" fromLane="0" toLane="0"/>
    <connection from="-1211218982" to="-763017695#0" fromLane="0" toLane="0"/>
    <connection from="-1211218982" to="1211218982" fromLane="0" toLane="0"/>

    <connection from="-1211220654" to="-470866144#1" fromLane="0" toLane="0"/>
    <connection from="-1211220654" to="470866144#2" fromLane="0" toLane="0"/>
    <connection from="-1211220654" to="1211220654" fromLane="0" toLane="0"/>

    <connection from="-1218568800" to="1218568800" fromLane="0" toLane="0"/>

    <connection from="-1262877731#0" to="1195176494" fromLane="0" toLane="0"/>

    <connection from="-1262877731#1" to="-802794946#2" fromLane="0" toLane="0"/>
    <connection from="-1262877731#1" to="-1262877731#0" fromLane="0" toLane="0"/>
    <connection from="-1262877731#1" to="1262877731#1" fromLane="0" toLane="0"/>

    <connection from="-1262877731#2" to="1195176490" fromLane="0" toLane="0"/>
    <connection from="-1262877731#2" to="-1262877731#1" fromLane="0" toLane="0"/>
    <connection from="-1262877731#2" to="1262877731#2" fromLane="0" toLane="0"/>

    <connection from="-1262877732" to="-1262877731#2" fromLane="0" toLane="0"/>

    <connection from="-1262877733" to="744240848#0" fromLane="0" toLane="0"/>
    <connection from="-1262877733" to="-744240849" fromLane="0" toLane="0"/>
    <connection from="-1262877733" to="1262877733" fromLane="0" toLane="0"/>

    <connection from="-1305162879" to="-1210908131#5" fromLane="0" toLane="0"/>
    <connection from="-1305162879" to="1210908131#6" fromLane="0" toLane="0"/>
    <connection from="-1305162879" to="1305162879" fromLane="0" toLane="0"/>

    <connection from="-1305162880" to="-1210908131#3" fromLane="0" toLane="0"/>
    <connection from="-1305162880" to="1210908131#4" fromLane="0" toLane="0"/>
    <connection from="-1305162880" to="1305162880" fromLane="0" toLane="0"/>

    <connection from="-1305162881#0" to="1210908131#7" fromLane="0" toLane="0"/>
    <connection from="-1305162881#0" to="-1210908131#6" fromLane="0" toLane="0"/>
    <connection from="-1305162881#0" to="1305162881#0" fromLane="0" toLane="0"/>

    <connection from="-1305162881#1" to="-1305162881#0" fromLane="0" toLane="0"/>
    <connection from="-1305162881#1" to="1305162882" fromLane="0" toLane="0"/>
    <connection from="-1305162881#1" to="1305162881#1" fromLane="0" toLane="0"/>

    <connection from="-1305162882" to="1305162881#1" fromLane="0" toLane="0"/>
    <connection from="-1305162882" to="-1305162881#0" fromLane="0" toLane="0"/>
    <connection from="-1305162882" to="1305162882" fromLane="0" toLane="0"/>

    <connection from="-1305162883" to="-1193733759#1" fromLane="0" toLane="0"/>
    <connection from="-1305162883" to="1193733759#2" fromLane="0" toLane="0"/>
    <connection from="-1305162883" to="1305162883" fromLane="0" toLane="0"/>

    <connection from="-1305162884" to="-1193733759#0" fromLane="0" toLane="0"/>
    <connection from="-1305162884" to="1193733759#1" fromLane="0" toLane="0"/>
    <connection from="-1305162884" to="1305162884" fromLane="0" toLane="0"/>

    <connection from="-1305162885" to="749959413#4" fromLane="0" toLane="0"/>
    <connection from="-1305162885" to="-749959413#3" fromLane="0" toLane="0"/>
    <connection from="-1305162885" to="1305162885" fromLane="0" toLane="0"/>

    <connection from="-1305162886" to="749959413#3" fromLane="0" toLane="0"/>
    <connection from="-1305162886" to="-749959413#2" fromLane="0" toLane="0"/>
    <connection from="-1305162886" to="1305162886" fromLane="0" toLane="0"/>

    <connection from="-1305162887" to="802794946#1" fromLane="0" toLane="0"/>
    <connection from="-1305162887" to="-1195177019#1" fromLane="0" toLane="0"/>
    <connection from="-1305162887" to="-802794946#0" fromLane="0" toLane="0"/>
    <connection from="-1305162887" to="1305162887" fromLane="0" toLane="0"/>

    <connection from="-1305162888" to="-749392248#0" fromLane="0" toLane="0"/>
    <connection from="-1305162888" to="749392248#1" fromLane="0" toLane="0"/>
    <connection from="-1305162888" to="1305162888" fromLane="0" toLane="0"/>

    <connection from="-1305162889" to="1305162889" fromLane="0" toLane="0"/>

    <connection from="-1305162891" to="742739229#6" fromLane="0" toLane="0"/>
    <connection from="-1305162891" to="-742739229#5" fromLane="0" toLane="0"/>
    <connection from="-1305162891" to="1305162891" fromLane="0" toLane="0"/>

    <connection from="-1305162893" to="-1211182611#1" fromLane="0" toLane="0"/>
    <connection from="-1305162893" to="1211182611#2" fromLane="0" toLane="0"/>
    <connection from="-1305162893" to="1305162893" fromLane="0" toLane="0"/>

    <connection from="-159463136#0" to="159463136#0" fromLane="0" toLane="0"/>

    <connection from="-159463136#1" to="-1195269934" fromLane="0" toLane="0"/>
    <connection from="-159463136#1" to="-159463136#0" fromLane="0" toLane="0"/>
    <connection from="-159463136#1" to="159463136#1" fromLane="0" toLane="0"/>

    <connection from="-450752220#0" to="-807994455#1" fromLane="0" toLane="0"/>

    <connection from="-450752220#1" to="-1305162887" fromLane="0" toLane="0"/>
    <connection from="-450752220#1" to="-450752220#0" fromLane="0" toLane="0"/>
    <connection from="-450752220#1" to="450752220#1" fromLane="0" toLane="0"/>

    <connection from="-450752220#2" to="-802794950" fromLane="0" toLane="0"/>
    <connection from="-450752220#2" to="-450752220#1" fromLane="0" toLane="0"/>
    <connection from="-450752220#2" to="450752220#2" fromLane="0" toLane="0"/>

    <connection from="-450752220#3" to="-450752220#2" fromLane="0" toLane="0"/>
    <connection from="-450752220#3" to="802794959#0" fromLane="0" toLane="0"/>
    <connection from="-450752220#3" to="450752220#3" fromLane="0" toLane="0"/>

    <connection from="-450752220#4" to="746528092#0" fromLane="0" toLane="0"/>
    <connection from="-450752220#4" to="-450752220#3" fromLane="0" toLane="0"/>
    <connection from="-450752220#4" to="450752220#4" fromLane="0" toLane="0"/>

    <connection from="-470866144#0" to="470866144#0" fromLane="0" toLane="0"/>

    <connection from="-470866144#1" to="-749369851#1" fromLane="0" toLane="0"/>
    <connection from="-470866144#1" to="-470866144#0" fromLane="0" toLane="0"/>
    <connection from="-470866144#1" to="470866144#1" fromLane="0" toLane="0"/>

    <connection from="-470866144#2" to="1211220654" fromLane="0" toLane="0"/>
    <connection from="-470866144#2" to="-470866144#1" fromLane="0" toLane="0"/>
    <connection from="-470866144#2" to="470866144#2" fromLane="0" toLane="0"/>

    <connection from="-470866144#3" to="749369851#0" fromLane="0" toLane="0"/>
    <connection from="-470866144#3" to="-470866144#2" fromLane="0" toLane="0"/>
    <connection from="-470866144#3" to="470866144#3" fromLane="0" toLane="0"/>

    <connection from="-470866144#4" to="548373992#4" fromLane="0" toLane="0"/>
    <connection from="-470866144#4" to="-470866144#3" fromLane="0" toLane="0"/>
    <connection from="-470866144#4" to="470866144#4" fromLane="0" toLane="0"/>

    <connection from="-548373963#0" to="548373963#0" fromLane="0" toLane="0"/>

    <connection from="-548373963#1" to="-548373963#0" fromLane="0" toLane="0"/>
    <connection from="-548373963#1" to="-810727743" fromLane="0" toLane="0"/>
    <connection from="-548373963#1" to="548373963#1" fromLane="0" toLane="0"/>

    <connection from="-548373963#10" to="-763017695#1" fromLane="0" toLane="0"/>
    <connection from="-548373963#10" to="-548373963#9" fromLane="0" toLane="0"/>
    <connection from="-548373963#10" to="548373963#10" fromLane="0" toLane="0"/>

    <connection from="-548373963#11" to="-548373963#10" fromLane="0" toLane="0"/>
    <connection from="-548373963#11" to="800108281" fromLane="0" toLane="0"/>
    <connection from="-548373963#11" to="548373963#11" fromLane="0" toLane="0"/>

    <connection from="-548373963#12" to="-548373963#11" fromLane="0" toLane="0"/>
    <connection from="-548373963#12" to="749999921#0" fromLane="0" toLane="0"/>
    <connection from="-548373963#12" to="548373963#12" fromLane="0" toLane="0"/>

    <connection from="-548373963#2" to="-548373963#1" fromLane="0" toLane="0"/>
    <connection from="-548373963#2" to="-800108287" fromLane="0" toLane="0"/>
    <connection from="-548373963#2" to="548373963#2" fromLane="0" toLane="0"/>

    <connection from="-548373963#3" to="747167370" fromLane="0" toLane="0"/>
    <connection from="-548373963#3" to="-548373963#2" fromLane="0" toLane="0"/>
    <connection from="-548373963#3" to="548373963#3" fromLane="0" toLane="0"/>

    <connection from="-548373963#4" to="-548373963#3" fromLane="0" toLane="0"/>
    <connection from="-548373963#4" to="-800108286" fromLane="0" toLane="0"/>
    <connection from="-548373963#4" to="548373963#4" fromLane="0" toLane="0"/>

    <connection from="-548373963#5" to="802464507" fromLane="0" toLane="0"/>
    <connection from="-548373963#5" to="-548373963#4" fromLane="0" toLane="0"/>
    <connection from="-548373963#5" to="548373963#5" fromLane="0" toLane="0"/>

    <connection from="-548373963#6" to="-548373963#5" fromLane="0" toLane="0"/>
    <connection from="-548373963#6" to="1211218243" fromLane="0" toLane="0"/>
    <connection from="-548373963#6" to="548373963#6" fromLane="0" toLane="0"/>

    <connection from="-548373963#7" to="-548373963#6" fromLane="0" toLane="0"/>
    <connection from="-548373963#7" to="-805971869#5" fromLane="0" toLane="0"/>
    <connection from="-548373963#7" to="548373963#7" fromLane="0" toLane="0"/>

    <connection from="-548373963#8" to="-548373963#7" fromLane="0" toLane="0"/>
    <connection from="-548373963#8" to="800108283" fromLane="0" toLane="0"/>
    <connection from="-548373963#8" to="548373963#8" fromLane="0" toLane="0"/>

    <connection from="-548373963#9" to="-548373963#8" fromLane="0" toLane="0"/>
    <connection from="-548373963#9" to="800108282" fromLane="0" toLane="0"/>
    <connection from="-548373963#9" to="548373963#9" fromLane="0" toLane="0"/>

    <connection from="-649120019" to="548373950#2" fromLane="0" toLane="1"/>
    <connection from="-649120019" to="548373950#2" fromLane="0" toLane="2"/>
    <connection from="-649120019" to="649120019" fromLane="0" toLane="0"/>

    <connection from="-742734989" to="-805971869#2" fromLane="0" toLane="0"/>
    <connection from="-742734989" to="805971869#3" fromLane="0" toLane="0"/>
    <connection from="-742734989" to="742734989" fromLane="0" toLane="0"/>

    <connection from="-742739229#0" to="802000252#0" fromLane="0" toLane="0"/>
    <connection from="-742739229#0" to="-450752220#4" fromLane="0" toLane="0"/>
    <connection from="-742739229#0" to="742739229#0" fromLane="0" toLane="0"/>

    <connection from="-742739229#1" to="-742739229#0" fromLane="0" toLane="0"/>
    <connection from="-742739229#1" to="749392248#0" fromLane="0" toLane="0"/>
    <connection from="-742739229#1" to="742739229#1" fromLane="0" toLane="0"/>

    <connection from="-742739229#2" to="-742739229#1" fromLane="0" toLane="0"/>
    <connection from="-742739229#2" to="-1305162889" fromLane="0" toLane="0"/>
    <connection from="-742739229#2" to="742739229#2" fromLane="0" toLane="0"/>

    <connection from="-742739229#3" to="-744528054#4" fromLane="0" toLane="0"/>
    <connection from="-742739229#3" to="-742739229#2" fromLane="0" toLane="0"/>
    <connection from="-742739229#3" to="742739229#3" fromLane="0" toLane="0"/>

    <connection from="-742739229#4" to="-1218568800" fromLane="0" toLane="0"/>
    <connection from="-742739229#4" to="-742739229#3" fromLane="0" toLane="0"/>
    <connection from="-742739229#4" to="802794960#0" fromLane="0" toLane="0"/>
    <connection from="-742739229#4" to="742739229#4" fromLane="0" toLane="0"/>

    <connection from="-742739229#5" to="-742739229#4" fromLane="0" toLane="0"/>
    <connection from="-742739229#5" to="746563348" fromLane="0" toLane="0"/>
    <connection from="-742739229#5" to="742739229#5" fromLane="0" toLane="0"/>

    <connection from="-742739229#6" to="-742739229#5" fromLane="0" toLane="0"/>
    <connection from="-742739229#6" to="1305162891" fromLane="0" toLane="0"/>
    <connection from="-742739229#6" to="742739229#6" fromLane="0" toLane="0"/>

    <connection from="-744238099#0" to="-744238100" fromLane="0" toLane="0"/>

    <connection from="-744238099#1" to="847576202" fromLane="0" toLane="0"/>
    <connection from="-744238099#1" to="-744238099#0" fromLane="0" toLane="0"/>

    <connection from="-744238099#2" to="-1047765851" fromLane="0" toLane="0"/>
    <connection from="-744238099#2" to="-744238099#1" fromLane="0" toLane="0"/>

    <connection from="-744238099#3" to="-1211206496" fromLane="0" toLane="0"/>
    <connection from="-744238099#3" to="-744238099#2" fromLane="0" toLane="0"/>

    <connection from="-744238099#4" to="1211206496" fromLane="0" toLane="0"/>
    <connection from="-744238099#4" to="-744238099#3" fromLane="0" toLane="0"/>

    <connection from="-744238099#5" to="548373950#5" fromLane="0" toLane="0"/>
    <connection from="-744238099#5" to="-744238099#4" fromLane="0" toLane="0"/>
    <connection from="-744238099#5" to="744238099#5" fromLane="0" toLane="0"/>

    <connection from="-744238100" to="-159463136#1" fromLane="0" toLane="0"/>

    <connection from="-744240848#0" to="-744240849" fromLane="0" toLane="0"/>
    <connection from="-744240848#0" to="1262877733" fromLane="0" toLane="0"/>
    <connection from="-744240848#0" to="744240848#0" fromLane="0" toLane="0"/>

    <connection from="-744240848#1" to="-744240848#0" fromLane="0" toLane="0"/>
    <connection from="-744240848#1" to="-749959413#4" fromLane="0" toLane="0"/>
    <connection from="-744240848#1" to="744240848#1" fromLane="0" toLane="0"/>

    <connection from="-744240849" to="1210908131#1" fromLane="0" toLane="0"/>
    <connection from="-744240849" to="-1210908131#0" fromLane="0" toLane="0"/>
    <connection from="-744240849" to="744240849" fromLane="0" toLane="0"/>

    <connection from="-744528054#0" to="901028067#1" fromLane="0" toLane="1"/>
    <connection from="-744528054#0" to="901028067#1" fromLane="0" toLane="2"/>
    <connection from="-744528054#0" to="744528054#0" fromLane="0" toLane="0"/>

    <connection from="-744528054#1" to="763019925#0" fromLane="0" toLane="0"/>
    <connection from="-744528054#1" to="-744528054#0" fromLane="0" toLane="0"/>
    <connection from="-744528054#1" to="-750356550" fromLane="0" toLane="0"/>
    <connection from="-744528054#1" to="744528054#1" fromLane="0" toLane="0"/>

    <connection from="-744528054#2" to="802794968#0" fromLane="0" toLane="0"/>
    <connection from="-744528054#2" to="-744528054#1" fromLane="0" toLane="0"/>
    <connection from="-744528054#2" to="744528054#2" fromLane="0" toLane="0"/>

    <connection from="-744528054#3" to="-802794961#1" fromLane="0" toLane="0"/>
    <connection from="-744528054#3" to="-744528054#2" fromLane="0" toLane="0"/>
    <connection from="-744528054#3" to="744528054#3" fromLane="0" toLane="0"/>

    <connection from="-744528054#4" to="-744528054#3" fromLane="0" toLane="0"/>
    <connection from="-744528054#4" to="802794954" fromLane="0" toLane="0"/>
    <connection from="-744528054#4" to="744528054#4" fromLane="0" toLane="0"/>

    <connection from="-744796384" to="-1210908131#8" fromLane="0" toLane="0"/>
    <connection from="-744796384" to="1210908131#9" fromLane="0" toLane="0"/>
    <connection from="-744796384" to="744796384" fromLane="0" toLane="0"/>

    <connection from="-745527903" to="745527904#1" fromLane="0" toLane="0"/>
    <connection from="-745527903" to="-745527904#0" fromLane="0" toLane="0"/>
    <connection from="-745527903" to="745527903" fromLane="0" toLane="0"/>

    <connection from="-745527904#0" to="548373950#4" fromLane="0" toLane="1"/>
    <connection from="-745527904#0" to="548373950#4" fromLane="0" toLane="2"/>
    <connection from="-745527904#0" to="745527904#0" fromLane="0" toLane="0"/>

    <connection from="-745527904#1" to="-745527904#0" fromLane="0" toLane="0"/>
    <connection from="-745527904#1" to="745527903" fromLane="0" toLane="0"/>

    <connection from="-746528091" to="746528091" fromLane="0" toLane="0"/>

    <connection from="-746528092#0" to="-450752220#3" fromLane="0" toLane="0"/>
    <connection from="-746528092#0" to="450752220#4" fromLane="0" toLane="0"/>
    <connection from="-746528092#0" to="746528092#0" fromLane="0" toLane="0"/>

    <connection from="-746528092#1" to="-746528091" fromLane="0" toLane="0"/>
    <connection from="-746528092#1" to="-746528092#0" fromLane="0" toLane="0"/>
    <connection from="-746528092#1" to="746528092#1" fromLane="0" toLane="0"/>

    <connection from="-746528092#2" to="749959413#1" fromLane="0" toLane="0"/>
    <connection from="-746528092#2" to="-749959413#0" fromLane="0" toLane="0"/>
    <connection from="-746528092#2" to="-746528092#1" fromLane="0" toLane="0"/>
    <connection from="-746528092#2" to="746528092#2" fromLane="0" toLane="0"/>

    <connection from="-746528092#3" to="802794953" fromLane="0" toLane="0"/>
    <connection from="-746528092#3" to="-746528092#2" fromLane="0" toLane="0"/>
    <connection from="-746528092#3" to="-1211187479" fromLane="0" toLane="0"/>
    <connection from="-746528092#3" to="746528092#3" fromLane="0" toLane="0"/>

    <connection from="-746563348" to="742739229#5" fromLane="0" toLane="0"/>
    <connection from="-746563348" to="-742739229#4" fromLane="0" toLane="0"/>
    <connection from="-746563348" to="746563348" fromLane="0" toLane="0"/>

    <connection from="-747167370" to="-548373963#2" fromLane="0" toLane="0"/>
    <connection from="-747167370" to="548373963#3" fromLane="0" toLane="0"/>
    <connection from="-747167370" to="747167370" fromLane="0" toLane="0"/>

    <connection from="-749369851#0" to="-470866144#2" fromLane="0" toLane="0"/>
    <connection from="-749369851#0" to="470866144#3" fromLane="0" toLane="0"/>
    <connection from="-749369851#0" to="749369851#0" fromLane="0" toLane="0"/>

    <connection from="-749369851#1" to="-749369851#0" fromLane="0" toLane="0"/>
    <connection from="-749369851#1" to="-763019925#2" fromLane="0" toLane="0"/>
    <connection from="-749369851#1" to="749369851#1" fromLane="0" toLane="0"/>

    <connection from="-749392248#0" to="742739229#1" fromLane="0" toLane="0"/>
    <connection from="-749392248#0" to="-742739229#0" fromLane="0" toLane="0"/>
    <connection from="-749392248#0" to="749392248#0" fromLane="0" toLane="0"/>

    <connection from="-749392248#1" to="1305162888" fromLane="0" toLane="0"/>
    <connection from="-749392248#1" to="-749392248#0" fromLane="0" toLane="0"/>
    <connection from="-749392248#1" to="749392248#1" fromLane="0" toLane="0"/>

    <connection from="-749392248#2" to="-749392248#1" fromLane="0" toLane="0"/>
    <connection from="-749392248#2" to="-802794951" fromLane="0" toLane="0"/>
    <connection from="-749392248#2" to="749392248#2" fromLane="0" toLane="0"/>

    <connection from="-749392248#3" to="-749392248#2" fromLane="0" toLane="0"/>
    <connection from="-749392248#3" to="-802794959#1" fromLane="0" toLane="0"/>
    <connection from="-749392248#3" to="749392248#3" fromLane="0" toLane="0"/>

    <connection from="-749392248#4" to="-749392248#3" fromLane="0" toLane="0"/>
    <connection from="-749392248#4" to="1211184269" fromLane="0" toLane="0"/>
    <connection from="-749392248#4" to="749392248#4" fromLane="0" toLane="0"/>
