<edges xmlns:xsi="http://www.w3.org/2001/XMLSchema-instance" version="1.20" xsi:noNamespaceSchemaLocation="http://sumo.dlr.de/xsd/edges_file.xsd">
    <location netOffset="-716957.53,-934460.60" convBoundary="0.00,0.00,4566.05,3990.00" origBoundary="76.970769,8.448574,77.030880,8.576337" projParameter="+proj=utm +zone=43 +ellps=WGS84 +datum=WGS84 +units=m +no_defs" />

    <edge id="-1047765851" from="1715865327" to="9634762436" priority="1" type="highway.service" numLanes="1" speed="5.56" shape="1160.17,2497.36 1191.97,2488.22 1251.57,2468.19 1263.12,2468.86 1270.67,2474.45 1274.12,2493.45" allow="pedestrian delivery bicycle" />
    <edge id="-1047765852#0" from="4476560795" to="9634762441" priority="3" type="highway.residential" numLanes="1" speed="13.89" disallow="tram rail_urban rail rail_electric rail_fast ship container cable_car subway aircraft wheelchair scooter drone" />
    <edge id="-1047765852#1" from="12657879692" to="4476560795" priority="3" type="highway.residential" numLanes="1" speed="13.89" shape="1191.60,2225.69 1187.28,2237.90 1170.96,2243.50 1120.46,2247.51 1078.79,2251.30" disallow="tram rail_urban rail rail_electric rail_fast ship container cable_car subway aircraft wheelchair scooter drone" />
    <edge id="-1063778797" from="9770999343" to="6965539791" priority="3" type="highway.residential" numLanes="1" speed="13.89" shape="465.66,2310.10 471.89,2304.53 480.89,2300.97 489.36,2303.41 493.20,2312.11 497.98,2325.14 508.63,2329.29 535.11,2335.56 557.76,2339.93 562.18,2335.82 565.63,2330.61" disallow="tram rail_urban rail rail_electric rail_fast ship container cable_car subway aircraft wheelchair scooter drone" />
    <edge id="-1094107491" from="7509515151" to="7130182016" priority="3" type="highway.residential" numLanes="1" speed="13.89" disallow="tram rail_urban rail rail_electric rail_fast ship container cable_car subway aircraft wheelchair scooter drone" />
    <edge id="-1111261524" from="10168276775" to="10168276773" priority="3" type="highway.residential" numLanes="1" speed="13.89" shape="1523.03,2501.29 1490.71,2505.30 1459.38,2511.86" disallow="tram rail_urban rail rail_electric rail_fast ship container cable_car subway aircraft wheelchair scooter drone" />
    <edge id="-1111977558" from="10173164202" to="10173164201" priority="3" type="highway.residential" numLanes="1" speed="13.89" shape="553.76,2632.44 506.47,2648.42 454.12,2676.68" disallow="tram rail_urban rail rail_electric rail_fast ship container cable_car subway aircraft wheelchair scooter drone" />
    <edge id="-1177215282" from="10936666446" to="10936666447" priority="1" type="highway.service" numLanes="1" speed="5.56" allow="pedestrian delivery bicycle" />
    <edge id="-1193733759#0" from="11080736317" to="11080736311" priority="3" type="highway.residential" numLanes="1" speed="13.89" shape="666.06,2418.84 669.26,2428.83 667.66,2454.65 652.49,2473.65 631.68,2500.54 617.16,2510.16 596.85,2522.10" disallow="tram rail_urban rail rail_electric rail_fast ship container cable_car subway aircraft wheelchair scooter drone" />
    <edge id="-1193733759#1" from="12088188932" to="11080736317" priority="3" type="highway.residential" numLanes="1" speed="13.89" disallow="tram rail_urban rail rail_electric rail_fast ship container cable_car subway aircraft wheelchair scooter drone" />
    <edge id="-1193733759#2" from="12088188931" to="12088188932" priority="3" type="highway.residential" numLanes="1" speed="13.89" shape="630.55,2403.06 643.05,2413.15 656.86,2416.56" disallow="tram rail_urban rail rail_electric rail_fast ship container cable_car subway aircraft wheelchair scooter drone" />
    <edge id="-1193733759#3" from="11080736322" to="12088188931" priority="3" type="highway.residential" numLanes="1" speed="13.89" shape="579.13,2378.78 596.51,2387.96 613.32,2392.45 629.52,2402.22 630.55,2403.06" disallow="tram rail_urban rail rail_electric rail_fast ship container cable_car subway aircraft wheelchair scooter drone" />
    <edge id="-1195176490" from="7509515055" to="11092876469" priority="3" type="highway.residential" numLanes="1" speed="13.89" disallow="tram rail_urban rail rail_electric rail_fast ship container cable_car subway aircraft wheelchair scooter drone" />
    <edge id="-1195176494" from="7509515042" to="10928627923" priority="3" type="highway.residential" numLanes="1" speed="13.89" disallow="tram rail_urban rail rail_electric rail_fast ship container cable_car subway aircraft wheelchair scooter drone" />
    <edge id="-1195176789" from="7509515057" to="11092875706" priority="3" type="highway.residential" numLanes="1" speed="13.89" shape="826.01,2058.40 815.71,2058.06 797.17,2059.15" disallow="tram rail_urban rail rail_electric rail_fast ship container cable_car subway aircraft wheelchair scooter drone" />
    <edge id="-1195177019#0" from="11221850315" to="7509515053" priority="3" type="highway.residential" numLanes="1" speed="13.89" disallow="tram rail_urban rail rail_electric rail_fast ship container cable_car subway aircraft wheelchair scooter drone" />
    <edge id="-1195177019#1" from="7509515031" to="11221850315" priority="3" type="highway.residential" numLanes="1" speed="13.89" shape="723.32,2048.74 712.62,2050.28 700.62,2047.42 688.97,2056.89" disallow="tram rail_urban rail rail_electric rail_fast ship container cable_car subway aircraft wheelchair scooter drone" />
    <edge id="-1195238755" from="11093426364" to="6978614455" priority="1" type="highway.service" numLanes="1" speed="5.56" allow="pedestrian delivery bicycle" />
    <edge id="-1195269934" from="1715865308" to="11222081967" priority="3" type="highway.residential" numLanes="1" speed="13.89" shape="1256.74,2838.89 1269.17,2839.98 1286.01,2837.51 1290.15,2835.59 1292.95,2833.83 1295.55,2829.17 1296.87,2782.02 1298.02,2741.04 1299.54,2708.02 1300.64,2693.86 1296.53,2664.59" disallow="tram rail_urban rail rail_electric rail_fast ship container cable_car subway aircraft wheelchair scooter drone" />
    <edge id="-1210908131#0" from="6965539809" to="11219230698" priority="11" type="highway.secondary" numLanes="1" speed="27.78" shape="259.22,2151.38 245.55,2136.78 227.29,2114.44" disallow="tram rail_urban rail rail_electric rail_fast ship container cable_car subway aircraft wheelchair scooter drone" />
    <edge id="-1210908131#1" from="9770999343" to="6965539809" priority="11" type="highway.secondary" numLanes="1" speed="27.78" shape="465.66,2310.10 454.02,2296.31 437.45,2280.86 415.92,2267.40 354.69,2246.18 332.74,2229.92 259.22,2151.38" disallow="tram rail_urban rail rail_electric rail_fast ship container cable_car subway aircraft wheelchair scooter drone" />
    <edge id="-1210908131#10" from="6975349631" to="10936666422" priority="11" type="highway.secondary" numLanes="1" speed="27.78" disallow="tram rail_urban rail rail_electric rail_fast ship container cable_car subway aircraft wheelchair scooter drone" />
    <edge id="-1210908131#2" from="11221831334" to="9770999343" priority="11" type="highway.secondary" numLanes="1" speed="27.78" shape="516.84,2409.81 506.82,2388.66 481.82,2335.93 473.01,2319.66 465.66,2310.10" disallow="tram rail_urban rail rail_electric rail_fast ship container cable_car subway aircraft wheelchair scooter drone" />
    <edge id="-1210908131#3" from="12088188920" to="11221831334" priority="11" type="highway.secondary" numLanes="1" speed="27.78" disallow="tram rail_urban rail rail_electric rail_fast ship container cable_car subway aircraft wheelchair scooter drone" />
    <edge id="-1210908131#4" from="7509515000" to="12088188920" priority="11" type="highway.secondary" numLanes="1" speed="27.78" disallow="tram rail_urban rail rail_electric rail_fast ship container cable_car subway aircraft wheelchair scooter drone" />
    <edge id="-1210908131#5" from="12088188918" to="7509515000" priority="11" type="highway.secondary" numLanes="1" speed="27.78" shape="553.79,2461.50 541.45,2446.91 525.83,2428.74" disallow="tram rail_urban rail rail_electric rail_fast ship container cable_car subway aircraft wheelchair scooter drone" />
    <edge id="-1210908131#6" from="12088188924" to="12088188918" priority="11" type="highway.secondary" numLanes="1" speed="27.78" shape="584.25,2503.60 563.04,2472.45 553.79,2461.50" disallow="tram rail_urban rail rail_electric rail_fast ship container cable_car subway aircraft wheelchair scooter drone" />
    <edge id="-1210908131#7" from="11080736311" to="12088188924" priority="11" type="highway.secondary" numLanes="1" speed="27.78" disallow="tram rail_urban rail rail_electric rail_fast ship container cable_car subway aircraft wheelchair scooter drone" />
    <edge id="-1210908131#8" from="6970574685" to="11080736311" priority="11" type="highway.secondary" numLanes="1" speed="27.78" disallow="tram rail_urban rail rail_electric rail_fast ship container cable_car subway aircraft wheelchair scooter drone" />
    <edge id="-1210908131#9" from="10936666422" to="6970574685" priority="11" type="highway.secondary" numLanes="1" speed="27.78" shape="715.71,2682.79 685.98,2642.22 651.50,2593.38 600.76,2527.84" disallow="tram rail_urban rail rail_electric rail_fast ship container cable_car subway aircraft wheelchair scooter drone" />
    <edge id="-1211178731" from="11221850343" to="11221831334" priority="3" type="highway.residential" numLanes="1" speed="13.89" shape="438.65,2504.08 462.91,2436.16 465.48,2429.78 467.62,2427.85 470.55,2428.25 480.48,2428.89 488.47,2429.51 492.96,2427.79 496.30,2422.96 516.84,2409.81" disallow="tram rail_urban rail rail_electric rail_fast ship container cable_car subway aircraft wheelchair scooter drone" />
    <edge id="-1211179126" from="11221821969" to="7509515000" priority="3" type="highway.residential" numLanes="1" speed="13.89" shape="558.72,2391.54 539.14,2411.91 525.83,2428.74" disallow="tram rail_urban rail rail_electric rail_fast ship container cable_car subway aircraft wheelchair scooter drone" />
    <edge id="-1211179298" from="11221812699" to="11221812697" priority="1" type="highway.service" numLanes="1" speed="5.56" allow="pedestrian delivery bicycle" />
    <edge id="-1211179299" from="11221812701" to="11221812700" priority="1" type="highway.service" numLanes="1" speed="5.56" allow="pedestrian delivery bicycle" />
    <edge id="-1211182050" from="11221884542" to="7555807342" priority="3" type="highway.residential" numLanes="1" speed="13.89" shape="645.91,2042.38 631.26,2016.20 617.71,1999.78 600.83,1981.56 578.39,1971.52 551.38,1955.51 543.02,1950.62 528.73,1939.13 519.83,1926.50 512.10,1915.43 504.90,1912.10 491.66,1907.38 484.41,1900.17" disallow="tram rail_urban rail rail_electric rail_fast ship container cable_car subway aircraft wheelchair scooter drone" />
    <edge id="-1211182611#0" from="11221884542" to="11221850315" priority="3" type="highway.residential" numLanes="1" speed="13.89" shape="645.91,2042.38 656.55,2035.74 670.91,2028.47 676.74,2028.28 681.83,2038.76 688.97,2056.89" disallow="tram rail_urban rail rail_electric rail_fast ship container cable_car subway aircraft wheelchair scooter drone" />
    <edge id="-1211182611#1" from="12088252577" to="11221884542" priority="3" type="highway.residential" numLanes="1" speed="13.89" shape="630.44,2057.33 639.93,2046.11 645.91,2042.38" disallow="tram rail_urban rail rail_electric rail_fast ship container cable_car subway aircraft wheelchair scooter drone" />
    <edge id="-1211182611#2" from="12088252576" to="12088252577" priority="3" type="highway.residential" numLanes="1" speed="13.89" shape="598.15,2103.93 616.77,2101.97 616.81,2093.46 622.13,2067.15 630.44,2057.33" disallow="tram rail_urban rail rail_electric rail_fast ship container cable_car subway aircraft wheelchair scooter drone" />
    <edge id="-1211182612" from="11221850325" to="7509515033" priority="3" type="highway.residential" numLanes="1" speed="13.89" shape="723.85,1916.15 713.76,1941.28 708.26,1955.41 707.19,1963.83 709.87,1978.38" disallow="tram rail_urban rail rail_electric rail_fast ship container cable_car subway aircraft wheelchair scooter drone" />
    <edge id="-1211184266" from="11221904718" to="11221904714" priority="3" type="highway.residential" numLanes="1" speed="13.89" shape="739.91,1868.20 762.35,1869.79 783.60,1876.06 800.41,1879.98 815.75,1883.55 848.45,1900.45" disallow="tram rail_urban rail rail_electric rail_fast ship container cable_car subway aircraft wheelchair scooter drone" />
    <edge id="-1211184269" from="11221904713" to="11221904712" priority="3" type="highway.residential" numLanes="1" speed="13.89" disallow="tram rail_urban rail rail_electric rail_fast ship container cable_car subway aircraft wheelchair scooter drone" />
    <edge id="-1211184270" from="11221904714" to="11221904713" priority="3" type="highway.residential" numLanes="1" speed="13.89" disallow="tram rail_urban rail rail_electric rail_fast ship container cable_car subway aircraft wheelchair scooter drone" />
    <edge id="-1211187479" from="7509515065" to="11221902049" priority="3" type="highway.residential" numLanes="1" speed="13.89" disallow="tram rail_urban rail rail_electric rail_fast ship container cable_car subway aircraft wheelchair scooter drone" />
    <edge id="-1211203284" from="11222004604" to="11222004603" priority="3" type="highway.residential" numLanes="1" speed="13.89" disallow="tram rail_urban rail rail_electric rail_fast ship container cable_car subway aircraft wheelchair scooter drone" />
    <edge id="-1211206496" from="11222045533" to="11222045528" priority="1" type="highway.service" numLanes="1" speed="5.56" shape="1153.68,2471.55 1193.59,2459.95 1202.37,2452.59 1203.46,2439.81 1188.57,2435.14 1145.03,2453.82" allow="pedestrian delivery bicycle" />
    <edge id="-1211218242" from="11222114618" to="11222114617" priority="3" type="highway.residential" numLanes="1" speed="13.89" disallow="tram rail_urban rail rail_electric rail_fast ship container cable_car subway aircraft wheelchair scooter drone" />
    <edge id="-1211218243" from="11222114620" to="11222114619" priority="3" type="highway.residential" numLanes="1" speed="13.89" disallow="tram rail_urban rail rail_electric rail_fast ship container cable_car subway aircraft wheelchair scooter drone" />
    <edge id="-1211218982" from="11222183341" to="11222183340" priority="3" type="highway.residential" numLanes="1" speed="13.89" disallow="tram rail_urban rail rail_electric rail_fast ship container cable_car subway aircraft wheelchair scooter drone" />
    <edge id="-1211220654" from="11222180034" to="11222180029" priority="3" type="highway.residential" numLanes="1" speed="13.89" shape="1623.64,1922.91 1628.31,1903.89 1631.73,1899.70 1635.98,1899.89 1655.46,1904.37 1671.16,1909.16" disallow="tram rail_urban rail rail_electric rail_fast ship container cable_car subway aircraft wheelchair scooter drone" />
    <edge id="-1218568800" from="6952939634" to="11093661487" priority="3" type="highway.residential" numLanes="1" speed="13.89" disallow="tram rail_urban rail rail_electric rail_fast ship container cable_car subway aircraft wheelchair scooter drone" />
    <edge id="-1262877731#0" from="7509515018" to="10928627923" priority="3" type="highway.residential" numLanes="2" speed="13.89" disallow="tram rail_urban rail rail_electric rail_fast ship container cable_car subway aircraft wheelchair scooter drone" />
    <edge id="-1262877731#1" from="11092876469" to="7509515018" priority="3" type="highway.residential" numLanes="2" speed="13.89" disallow="tram rail_urban rail rail_electric rail_fast ship container cable_car subway aircraft wheelchair scooter drone" />
    <edge id="-1262877731#2" from="11092846096" to="11092876469" priority="3" type="highway.residential" numLanes="2" speed="13.89" disallow="tram rail_urban rail rail_electric rail_fast ship container cable_car subway aircraft wheelchair scooter drone" />
    <edge id="-1262877732" from="10928627924" to="11092846096" priority="3" type="highway.residential" numLanes="1" speed="13.89" disallow="tram rail_urban rail rail_electric rail_fast ship container cable_car subway aircraft wheelchair scooter drone" />
    <edge id="-1262877733" from="10928627924" to="6965539801" priority="3" type="highway.residential" numLanes="1" speed="13.89" shape="567.88,2178.83 568.61,2187.58 563.10,2221.32" disallow="tram rail_urban rail rail_electric rail_fast ship container cable_car subway aircraft wheelchair scooter drone" />
    <edge id="-1305162879" from="12088188919" to="12088188918" priority="3" type="highway.residential" numLanes="1" speed="13.89" disallow="tram rail_urban rail rail_electric rail_fast ship container cable_car subway aircraft wheelchair scooter drone" />
    <edge id="-1305162880" from="12088188923" to="12088188920" priority="3" type="highway.residential" numLanes="1" speed="13.89" shape="461.69,2481.05 487.19,2449.05 500.49,2440.59 523.00,2422.78" disallow="tram rail_urban rail rail_electric rail_fast ship container cable_car subway aircraft wheelchair scooter drone" />
    <edge id="-1305162881#0" from="12088188927" to="12088188924" priority="3" type="highway.residential" numLanes="1" speed="13.89" shape="607.36,2486.84 603.52,2491.37 584.25,2503.60" disallow="tram rail_urban rail rail_electric rail_fast ship container cable_car subway aircraft wheelchair scooter drone" />
    <edge id="-1305162881#1" from="12088188926" to="12088188927" priority="3" type="highway.residential" numLanes="1" speed="13.89" disallow="tram rail_urban rail rail_electric rail_fast ship container cable_car subway aircraft wheelchair scooter drone" />
    <edge id="-1305162882" from="12088188931" to="12088188927" priority="3" type="highway.residential" numLanes="1" speed="13.89" shape="630.55,2403.06 613.64,2442.13 599.19,2465.98 596.34,2473.89 607.36,2486.84" disallow="tram rail_urban rail rail_electric rail_fast ship container cable_car subway aircraft wheelchair scooter drone" />
    <edge id="-1305162883" from="12088188935" to="12088188932" priority="3" type="highway.residential" numLanes="1" speed="13.89" shape="695.49,2349.09 678.74,2363.38 667.20,2394.86 656.86,2416.56" disallow="tram rail_urban rail rail_electric rail_fast ship container cable_car subway aircraft wheelchair scooter drone" />
    <edge id="-1305162884" from="12088188940" to="11080736317" priority="3" type="highway.residential" numLanes="1" speed="13.89" shape="743.71,2439.18 735.64,2438.92 723.10,2441.52 709.69,2436.78 688.70,2424.66 666.06,2418.84" disallow="tram rail_urban rail rail_electric rail_fast ship container cable_car subway aircraft wheelchair scooter drone" />
    <edge id="-1305162885" from="12088188942" to="12088188941" priority="3" type="highway.residential" numLanes="1" speed="13.89" disallow="tram rail_urban rail rail_electric rail_fast ship container cable_car subway aircraft wheelchair scooter drone" />
    <edge id="-1305162886" from="12088188944" to="12088188943" priority="3" type="highway.residential" numLanes="1" speed="13.89" disallow="tram rail_urban rail rail_electric rail_fast ship container cable_car subway aircraft wheelchair scooter drone" />
    <edge id="-1305162887" from="12088188946" to="7509515031" priority="3" type="highway.residential" numLanes="1" speed="13.89" shape="767.92,2041.07 742.96,2044.94 723.32,2048.74" disallow="tram rail_urban rail rail_electric rail_fast ship container cable_car subway aircraft wheelchair scooter drone" />
    <edge id="-1305162888" from="12088188955" to="12088188951" priority="3" type="highway.residential" numLanes="1" speed="13.89" shape="895.87,1949.88 910.19,1989.50 912.43,1999.57 915.17,2011.78 928.96,2035.78 932.28,2056.28" disallow="tram rail_urban rail rail_electric rail_fast ship container cable_car subway aircraft wheelchair scooter drone" />
    <edge id="-1305162889" from="6952939640" to="12657879691" priority="3" type="highway.residential" numLanes="1" speed="13.89" shape="1045.48,2030.08 1035.25,2027.21 1032.45,2022.35 1032.56,1998.24 1030.64,1991.12 1025.26,1988.92" disallow="tram rail_urban rail rail_electric rail_fast ship container cable_car subway aircraft wheelchair scooter drone" />
    <edge id="-1305162891" from="12088252570" to="12088188965" priority="3" type="highway.residential" numLanes="1" speed="13.89" shape="875.32,1888.11 870.62,1852.06 863.50,1835.16 865.75,1797.36 863.52,1780.74 867.24,1766.30" disallow="tram rail_urban rail rail_electric rail_fast ship container cable_car subway aircraft wheelchair scooter drone" />
    <edge id="-1305162893" from="12088252580" to="12088252577" priority="3" type="highway.residential" numLanes="1" speed="13.89" shape="580.13,2045.73 586.30,2051.93 606.09,2050.85 630.44,2057.33" disallow="tram rail_urban rail rail_electric rail_fast ship container cable_car subway aircraft wheelchair scooter drone" />
    <edge id="-159463136#0" from="1715865308" to="304987501" priority="10" type="highway.tertiary" numLanes="1" speed="22.22" shape="1256.74,2838.89 1255.34,2855.24 1254.47,2884.08 1254.07,2922.50 1250.80,2935.33 1249.94,2964.36 1249.54,2973.03 1251.73,2978.63 1254.19,2984.24 1259.13,2986.55 1282.00,2993.27 1292.03,2996.11 1297.84,3003.37 1301.25,3011.43 1303.41,3025.67 1304.82,3041.52 1306.22,3052.46 1307.85,3066.80 1311.05,3077.59 1321.27,3095.17 1325.54,3104.05 1328.99,3119.73 1329.97,3134.56 1328.75,3150.36 1328.01,3160.05 1328.17,3177.35 1327.56,3196.98 1329.57,3227.39 1330.37,3232.58 1332.51,3246.49 1335.94,3261.54 1343.01,3290.97 1343.37,3297.80 1344.35,3316.74 1340.20,3329.87 1335.75,3336.91 1326.38,3342.32 1315.29,3345.48 1288.69,3348.88 1280.90,3350.07 1244.94,3355.55 1210.17,3365.63 1178.68,3374.13 1123.13,3388.45 1072.24,3420.69 1069.72,3422.30 1028.15,3464.34 981.89,3499.33 954.01,3519.73 918.14,3546.54 906.57,3554.70 860.59,3588.06 843.11,3600.75 787.43,3624.30 747.72,3639.53 727.87,3652.35 721.73,3656.32 699.78,3673.46 674.48,3689.98 650.85,3715.56 626.69,3741.98 610.84,3754.86 586.89,3777.01 576.60,3787.60 533.58,3817.73 503.81,3831.90 409.79,3882.04 393.67,3890.00 369.09,3907.01 363.96,3910.67 325.26,3934.22 315.19,3938.46 300.25,3945.15 261.42,3955.52 235.12,3960.32 197.25,3968.21 165.11,3971.80 151.21,3974.04 106.62,3981.22 65.43,3990.00" disallow="tram rail_urban rail rail_electric rail_fast ship container cable_car subway aircraft wheelchair scooter drone" />
    <edge id="-159463136#1" from="1715865312" to="1715865308" priority="10" type="highway.tertiary" numLanes="1" speed="22.22" shape="1232.69,2691.32 1240.15,2738.94 1256.31,2789.49 1258.93,2821.87 1256.74,2838.89" disallow="tram rail_urban rail rail_electric rail_fast ship container cable_car subway aircraft wheelchair scooter drone" />
    <edge id="-450752220#0" from="12088188946" to="4476560757" priority="3" type="highway.residential" numLanes="1" speed="13.89" shape="767.92,2041.07 769.35,2011.00 767.65,1999.59 764.07,1988.89" disallow="tram rail_urban rail rail_electric rail_fast ship container cable_car subway aircraft wheelchair scooter drone" />
    <edge id="-450752220#1" from="4476560783" to="12088188946" priority="3" type="highway.residential" numLanes="1" speed="13.89" shape="763.92,2111.04 767.22,2097.21 766.95,2078.09 767.65,2046.85 767.92,2041.07" disallow="tram rail_urban rail rail_electric rail_fast ship container cable_car subway aircraft wheelchair scooter drone" />
    <edge id="-450752220#2" from="12088188950" to="4476560783" priority="3" type="highway.residential" numLanes="1" speed="13.89" shape="793.31,2106.22 785.20,2106.99 763.92,2111.04" disallow="tram rail_urban rail rail_electric rail_fast ship container cable_car subway aircraft wheelchair scooter drone" />
    <edge id="-450752220#3" from="6986208821" to="12088188950" priority="3" type="highway.residential" numLanes="1" speed="13.89" shape="921.00,2102.50 810.35,2104.61 793.31,2106.22" disallow="tram rail_urban rail rail_electric rail_fast ship container cable_car subway aircraft wheelchair scooter drone" />
    <edge id="-450752220#4" from="4476560773" to="6986208821" priority="3" type="highway.residential" numLanes="1" speed="13.89" shape="1054.10,2098.62 1023.09,2103.36 987.67,2104.85 955.53,2103.95 921.00,2102.50" disallow="tram rail_urban rail rail_electric rail_fast ship container cable_car subway aircraft wheelchair scooter drone" />
    <edge id="-470866144#0" from="7007741881" to="4650462928" priority="3" type="highway.residential" numLanes="1" speed="13.89" shape="1673.33,1892.60 1675.07,1871.13 1676.12,1847.41 1674.21,1833.21 1668.87,1814.33 1662.04,1781.25 1658.87,1763.20 1653.58,1738.55 1654.54,1727.88 1657.08,1712.96 1656.00,1696.90 1653.15,1684.58 1639.35,1651.46 1626.32,1621.71 1622.71,1616.54 1614.47,1598.02 1609.06,1586.56 1599.65,1564.66 1584.97,1530.50 1630.72,1505.51 1640.20,1500.33 1710.59,1468.75 1728.66,1461.23 1738.89,1457.63 1743.85,1448.42 1745.53,1430.28 1740.13,1398.27 1729.76,1377.29 1728.21,1374.14 1725.34,1356.37 1728.79,1342.39 1736.76,1332.86 1758.12,1313.96" disallow="tram rail_urban rail rail_electric rail_fast ship container cable_car subway aircraft wheelchair scooter drone" />
    <edge id="-470866144#1" from="11222180029" to="7007741881" priority="3" type="highway.residential" numLanes="1" speed="13.89" disallow="tram rail_urban rail rail_electric rail_fast ship container cable_car subway aircraft wheelchair scooter drone" />
    <edge id="-470866144#2" from="6975349621" to="11222180029" priority="3" type="highway.residential" numLanes="1" speed="13.89" shape="1619.43,2043.81 1634.11,2042.18 1649.60,2033.51 1658.03,2024.51 1660.26,2017.10 1659.30,2009.62 1658.54,2002.09 1660.81,1994.71 1672.40,1977.86 1675.06,1965.32 1673.41,1952.39 1669.32,1937.44 1670.11,1917.29 1671.16,1909.16" disallow="tram rail_urban rail rail_electric rail_fast ship container cable_car subway aircraft wheelchair scooter drone" />
    <edge id="-470866144#3" from="6975349620" to="6975349621" priority="3" type="highway.residential" numLanes="1" speed="13.89" shape="1632.54,2080.23 1628.63,2066.74 1619.43,2043.81" disallow="tram rail_urban rail rail_electric rail_fast ship container cable_car subway aircraft wheelchair scooter drone" />
    <edge id="-470866144#4" from="6975349619" to="6975349620" priority="3" type="highway.residential" numLanes="1" speed="13.89" disallow="tram rail_urban rail rail_electric rail_fast ship container cable_car subway aircraft wheelchair scooter drone" />
    <edge id="-548373963#0" from="11222101665" to="5297704214" priority="11" type="highway.secondary" numLanes="1" speed="27.78" shape="1817.69,2414.40 1826.91,2413.78 1832.83,2413.54 1861.70,2408.83 1880.98,2397.06 1895.77,2384.23 1914.72,2363.05 1930.92,2342.60 1944.04,2327.31 1952.79,2316.84 1970.88,2309.33 1988.82,2306.60 2005.13,2307.10 2006.28,2307.14" disallow="tram rail_urban rail rail_electric rail_fast ship container cable_car subway aircraft wheelchair scooter drone" />
    <edge id="-548373963#1" from="7482789898" to="11222101665" priority="11" type="highway.secondary" numLanes="1" speed="27.78" shape="1732.07,2415.76 1768.36,2416.96 1777.59,2417.09 1817.69,2414.40" disallow="tram rail_urban rail rail_electric rail_fast ship container cable_car subway aircraft wheelchair scooter drone" />
    <edge id="-548373963#10" from="7482769929" to="7130134940" priority="11" type="highway.secondary" numLanes="1" speed="27.78" disallow="tram rail_urban rail rail_electric rail_fast ship container cable_car subway aircraft wheelchair scooter drone" />
    <edge id="-548373963#11" from="305427594" to="7482769929" priority="11" type="highway.secondary" numLanes="1" speed="27.78" shape="1341.60,2307.14 1372.30,2301.84 1401.19,2301.81 1425.70,2305.86" disallow="tram rail_urban rail rail_electric rail_fast ship container cable_car subway aircraft wheelchair scooter drone" />
    <edge id="-548373963#12" from="305427596" to="305427594" priority="11" type="highway.secondary" numLanes="1" speed="27.78" disallow="tram rail_urban rail rail_electric rail_fast ship container cable_car subway aircraft wheelchair scooter drone" />
    <edge id="-548373963#2" from="6991238721" to="7482789898" priority="11" type="highway.secondary" numLanes="1" speed="27.78" disallow="tram rail_urban rail rail_electric rail_fast ship container cable_car subway aircraft wheelchair scooter drone" />
    <edge id="-548373963#3" from="7482789889" to="6991238721" priority="11" type="highway.secondary" numLanes="1" speed="27.78" disallow="tram rail_urban rail rail_electric rail_fast ship container cable_car subway aircraft wheelchair scooter drone" />
    <edge id="-548373963#4" from="7506301767" to="7482789889" priority="11" type="highway.secondary" numLanes="1" speed="27.78" shape="1652.63,2385.34 1696.82,2404.75 1699.68,2406.21 1719.92,2413.26" disallow="tram rail_urban rail rail_electric rail_fast ship container cable_car subway aircraft wheelchair scooter drone" />
    <edge id="-548373963#5" from="11222114619" to="7506301767" priority="11" type="highway.secondary" numLanes="1" speed="27.78" disallow="tram rail_urban rail rail_electric rail_fast ship container cable_car subway aircraft wheelchair scooter drone" />
    <edge id="-548373963#6" from="2503482718" to="11222114619" priority="11" type="highway.secondary" numLanes="1" speed="27.78" disallow="tram rail_urban rail rail_electric rail_fast ship container cable_car subway aircraft wheelchair scooter drone" />
    <edge id="-548373963#7" from="7482769954" to="2503482718" priority="11" type="highway.secondary" numLanes="1" speed="27.78" disallow="tram rail_urban rail rail_electric rail_fast ship container cable_car subway aircraft wheelchair scooter drone" />
    <edge id="-548373963#8" from="7482769944" to="7482769954" priority="11" type="highway.secondary" numLanes="1" speed="27.78" disallow="tram rail_urban rail rail_electric rail_fast ship container cable_car subway aircraft wheelchair scooter drone" />