<?xml version="1.0" encoding="UTF-8"?>

<!-- generated on 2026-03-17 23:04:07 by Eclipse SUMO netconvert Version 1.24.0
<netconvertConfiguration xmlns:xsi="http://www.w3.org/2001/XMLSchema-instance" xsi:noNamespaceSchemaLocation="http://sumo.dlr.de/xsd/netconvertConfiguration.xsd">

    <input>
        <node-files value="map_plain.nod.xml"/>
        <edge-files value="map_plain.edg.xml"/>
    </input>

    <output>
        <output-file value="map.net.xml"/>
    </output>

    <report>
        <no-warnings value="true"/>
    </report>

</netconvertConfiguration>
-->

<net version="1.20" junctionCornerDetail="5" limitTurnSpeed="5.50" xmlns:xsi="http://www.w3.org/2001/XMLSchema-instance" xsi:noNamespaceSchemaLocation="http://sumo.dlr.de/xsd/net_file.xsd">

    <location netOffset="-724627.05,-937650.88" convBoundary="0.00,0.00,9174.36,7522.22" origBoundary="77.040657,8.453366,77.123779,8.545155" projParameter="+proj=utm +zone=43 +ellps=WGS84 +datum=WGS84 +units=m +no_defs"/>

    <edge id=":11056126773_0" function="internal">
        <lane id=":11056126773_0_0" index="0" allow="pedestrian delivery bicycle" speed="5.21" length="5.26" shape="2847.19,3499.81 2846.46,3498.69 2845.48,3498.07 2844.25,3497.95 2842.77,3498.34"/>
    </edge>
    <edge id=":11056126773_1" function="internal">
        <lane id=":11056126773_1_0" index="0" disallow="tram rail_urban rail rail_electric rail_fast ship container cable_car subway aircraft wheelchair scooter drone" speed="13.89" length="9.41" shape="2847.19,3499.81 2843.19,3491.29"/>
    </edge>
    <edge id=":11056126773_2" function="internal">
        <lane id=":11056126773_2_0" index="0" disallow="tram rail_urban rail rail_electric rail_fast ship container cable_car subway aircraft wheelchair scooter drone" speed="13.89" length="9.41" shape="2846.09,3489.92 2850.08,3498.43"/>
    </edge>
    <edge id=":11056126773_3" function="internal">
        <lane id=":11056126773_3_0" index="0" allow="pedestrian delivery bicycle" speed="6.81" length="3.34" shape="2846.09,3489.92 2846.94,3492.69 2846.89,3493.13"/>
    </edge>
    <edge id=":11056126773_7" function="internal">
        <lane id=":11056126773_7_0" index="0" allow="pedestrian delivery bicycle" speed="6.81" length="7.14" shape="2846.89,3493.13 2846.67,3495.01 2845.28,3496.90 2842.77,3498.34"/>
    </edge>
    <edge id=":11056126773_4" function="internal">
        <lane id=":11056126773_4_0" index="0" allow="pedestrian delivery bicycle" speed="4.97" length="5.08" shape="2841.59,3495.37 2842.80,3494.67 2843.48,3493.75 2843.61,3492.63 2843.19,3491.29"/>
    </edge>
    <edge id=":11056126773_5" function="internal">
        <lane id=":11056126773_5_0" index="0" allow="pedestrian delivery bicycle" speed="6.97" length="10.21" shape="2841.59,3495.37 2844.39,3494.65 2846.74,3494.93 2848.64,3496.19 2850.08,3498.43"/>
    </edge>
    <edge id=":11056126773_6" function="internal">
        <lane id=":11056126773_6_0" index="0" allow="pedestrian delivery bicycle" speed="3.65" length="4.67" shape="2841.59,3495.37 2843.00,3495.67 2843.66,3496.26 2843.59,3497.15 2842.77,3498.34"/>
    </edge>
    <edge id=":11056126786_0" function="internal">
        <lane id=":11056126786_0_0" index="0" allow="pedestrian delivery bicycle" speed="3.65" length="4.67" shape="2736.38,3453.65 2736.89,3452.31 2737.59,3451.74 2738.46,3451.95 2739.50,3452.95"/>
    </edge>
    <edge id=":12099945559_0" function="internal">
        <lane id=":12099945559_0_0" index="0" disallow="tram rail_urban rail rail_electric rail_fast ship container cable_car subway aircraft wheelchair scooter drone" speed="22.22" length="14.60" shape="2896.68,1433.07 2882.40,1429.99"/>
        <lane id=":12099945559_0_1" index="1" disallow="tram rail_urban rail rail_electric rail_fast ship container cable_car subway aircraft wheelchair scooter drone" speed="22.22" length="14.60" shape="2897.34,1429.94 2883.08,1426.86"/>
    </edge>
    <edge id=":12099945559_2" function="internal">
        <lane id=":12099945559_2_0" index="0" disallow="tram rail_urban rail rail_electric rail_fast ship container cable_car subway aircraft wheelchair scooter drone" speed="8.85" length="3.78" shape="2897.34,1429.94 2893.98,1428.65 2893.85,1428.53"/>
    </edge>
    <edge id=":12099945559_3" function="internal">
        <lane id=":12099945559_3_0" index="0" disallow="tram rail_urban rail rail_electric rail_fast ship container cable_car subway aircraft wheelchair scooter drone" speed="3.65" length="1.44" shape="2897.34,1429.94 2896.34,1428.91"/>
    </edge>
    <edge id=":12099945559_10" function="internal">
        <lane id=":12099945559_10_0" index="0" disallow="tram rail_urban rail rail_electric rail_fast ship container cable_car subway aircraft wheelchair scooter drone" speed="8.85" length="10.86" shape="2893.85,1428.53 2891.57,1426.39 2890.10,1423.18 2889.57,1419.01"/>
    </edge>
    <edge id=":12099945559_11" function="internal">
        <lane id=":12099945559_11_0" index="0" disallow="tram rail_urban rail rail_electric rail_fast ship container cable_car subway aircraft wheelchair scooter drone" speed="3.65" length="3.23" shape="2896.34,1428.91 2896.11,1428.04 2896.67,1427.35 2898.01,1426.81"/>
    </edge>
    <edge id=":12099945559_4" function="internal">
        <lane id=":12099945559_4_0" index="0" disallow="tram rail_urban rail rail_electric rail_fast ship container cable_car subway aircraft wheelchair scooter drone" speed="7.51" length="10.28" shape="2892.77,1418.97 2893.13,1421.99 2894.12,1424.30 2895.75,1425.91 2898.01,1426.81"/>
    </edge>
    <edge id=":12099945559_5" function="internal">
        <lane id=":12099945559_5_0" index="0" disallow="tram rail_urban rail rail_electric rail_fast ship container cable_car subway aircraft wheelchair scooter drone" speed="7.66" length="15.13" shape="2892.77,1418.97 2892.21,1423.23 2890.41,1425.96 2887.36,1427.17 2883.08,1426.86"/>
    </edge>
    <edge id=":12099945559_6" function="internal">
        <lane id=":12099945559_6_0" index="0" disallow="tram rail_urban rail rail_electric rail_fast ship container cable_car subway aircraft wheelchair scooter drone" speed="3.65" length="4.67" shape="2892.77,1418.97 2891.99,1420.18 2891.19,1420.59 2890.39,1420.20 2889.57,1419.01"/>
    </edge>
    <edge id=":12099945559_7" function="internal">
        <lane id=":12099945559_7_0" index="0" disallow="tram rail_urban rail rail_electric rail_fast ship container cable_car subway aircraft wheelchair scooter drone" speed="6.07" length="9.07" shape="2883.77,1423.73 2886.33,1423.92 2888.15,1423.19 2889.24,1421.56 2889.57,1419.01"/>
    </edge>
    <edge id=":12099945559_8" function="internal">
        <lane id=":12099945559_8_0" index="0" disallow="tram rail_urban rail rail_electric rail_fast ship container cable_car subway aircraft wheelchair scooter drone" speed="22.22" length="14.57" shape="2883.77,1423.73 2898.01,1426.81"/>
    </edge>
    <edge id=":12099945559_9" function="internal">
        <lane id=":12099945559_9_0" index="0" disallow="tram rail_urban rail rail_electric rail_fast ship container cable_car subway aircraft wheelchair scooter drone" speed="3.65" length="1.44" shape="2883.77,1423.73 2884.77,1424.77"/>
    </edge>
    <edge id=":12099945559_12" function="internal">
        <lane id=":12099945559_12_0" index="0" disallow="tram rail_urban rail rail_electric rail_fast ship container cable_car subway aircraft wheelchair scooter drone" speed="3.65" length="3.23" shape="2884.77,1424.77 2884.99,1425.64 2884.43,1426.34 2883.08,1426.86"/>
    </edge>
    <edge id=":12099945571_0" function="internal">
        <lane id=":12099945571_0_0" index="0" disallow="tram rail_urban rail rail_electric rail_fast ship container cable_car subway aircraft wheelchair scooter drone" speed="22.22" length="14.41" shape="3313.03,1793.93 3303.31,1783.29"/>
        <lane id=":12099945571_0_1" index="1" disallow="tram rail_urban rail rail_electric rail_fast ship container cable_car subway aircraft wheelchair scooter drone" speed="22.22" length="14.41" shape="3315.39,1791.77 3305.68,1781.13"/>
    </edge>
    <edge id=":12099945571_2" function="internal">
        <lane id=":12099945571_2_0" index="0" disallow="tram rail_urban rail rail_electric rail_fast ship container cable_car subway aircraft wheelchair scooter drone" speed="7.93" length="4.10" shape="3315.39,1791.77 3313.17,1788.50 3313.14,1788.36"/>
    </edge>
    <edge id=":12099945571_3" function="internal">
        <lane id=":12099945571_3_0" index="0" disallow="tram rail_urban rail rail_electric rail_fast ship container cable_car subway aircraft wheelchair scooter drone" speed="3.65" length="1.44" shape="3315.39,1791.77 3315.17,1790.34"/>
    </edge>
    <edge id=":12099945571_10" function="internal">
        <lane id=":12099945571_10_0" index="0" disallow="tram rail_urban rail rail_electric rail_fast ship container cable_car subway aircraft wheelchair scooter drone" speed="7.93" length="10.24" shape="3313.14,1788.36 3312.56,1785.34 3313.57,1782.28 3316.19,1779.33"/>
    </edge>
    <edge id=":12099945571_11" function="internal">
        <lane id=":12099945571_11_0" index="0" disallow="tram rail_urban rail rail_electric rail_fast ship container cable_car subway aircraft wheelchair scooter drone" speed="3.65" length="3.23" shape="3315.17,1790.34 3315.49,1789.51 3316.35,1789.26 3317.75,1789.61"/>
    </edge>
    <edge id=":12099945571_4" function="internal">
        <lane id=":12099945571_4_0" index="0" disallow="tram rail_urban rail rail_electric rail_fast ship container cable_car subway aircraft wheelchair scooter drone" speed="6.42" length="9.04" shape="3318.26,1781.77 3316.60,1783.63 3315.97,1785.56 3316.35,1787.55 3317.75,1789.61"/>
    </edge>
    <edge id=":12099945571_5" function="internal">
        <lane id=":12099945571_5_0" index="0" disallow="tram rail_urban rail rail_electric rail_fast ship container cable_car subway aircraft wheelchair scooter drone" speed="8.13" length="14.25" shape="3318.26,1781.77 3314.93,1783.88 3311.73,1784.47 3308.64,1783.56 3305.68,1781.13"/>
    </edge>
    <edge id=":12099945571_6" function="internal">
        <lane id=":12099945571_6_0" index="0" disallow="tram rail_urban rail rail_electric rail_fast ship container cable_car subway aircraft wheelchair scooter drone" speed="3.65" length="4.67" shape="3318.26,1781.77 3316.83,1781.94 3316.00,1781.58 3315.79,1780.71 3316.19,1779.33"/>
    </edge>
    <edge id=":12099945571_7" function="internal">
        <lane id=":12099945571_7_0" index="0" disallow="tram rail_urban rail rail_electric rail_fast ship container cable_car subway aircraft wheelchair scooter drone" speed="6.66" length="9.23" shape="3308.04,1778.97 3309.95,1780.53 3311.94,1781.11 3314.03,1780.71 3316.19,1779.33"/>
    </edge>
    <edge id=":12099945571_8" function="internal">
        <lane id=":12099945571_8_0" index="0" disallow="tram rail_urban rail rail_electric rail_fast ship container cable_car subway aircraft wheelchair scooter drone" speed="22.22" length="14.41" shape="3308.04,1778.97 3317.75,1789.61"/>
    </edge>
    <edge id=":12099945571_9" function="internal">
        <lane id=":12099945571_9_0" index="0" disallow="tram rail_urban rail rail_electric rail_fast ship container cable_car subway aircraft wheelchair scooter drone" speed="3.65" length="1.44" shape="3308.04,1778.97 3308.26,1780.40"/>
    </edge>
    <edge id=":12099945571_12" function="internal">
        <lane id=":12099945571_12_0" index="0" disallow="tram rail_urban rail rail_electric rail_fast ship container cable_car subway aircraft wheelchair scooter drone" speed="3.65" length="3.23" shape="3308.26,1780.40 3307.94,1781.23 3307.07,1781.48 3305.68,1781.13"/>
    </edge>
    <edge id=":12099945585_0" function="internal">
        <lane id=":12099945585_0_0" index="0" disallow="tram rail_urban rail rail_electric rail_fast ship container cable_car subway aircraft wheelchair scooter drone" speed="3.65" length="4.67" shape="2975.63,2082.49 2974.20,2082.29 2973.50,2081.74 2973.51,2080.84 2974.25,2079.61"/>
    </edge>
    <edge id=":12099945587_0" function="internal">
        <lane id=":12099945587_0_0" index="0" disallow="tram rail_urban rail rail_electric rail_fast ship container cable_car subway aircraft wheelchair scooter drone" speed="3.65" length="4.67" shape="3181.16,2197.50 3181.46,2198.91 3181.18,2199.76 3180.34,2200.05 3178.92,2199.78"/>
    </edge>
    <edge id=":12099945589_0" function="internal">
        <lane id=":12099945589_0_0" index="0" disallow="tram rail_urban rail rail_electric rail_fast ship container cable_car subway aircraft wheelchair scooter drone" speed="13.89" length="14.78" shape="3235.25,2215.34 3223.20,2223.89"/>
    </edge>
    <edge id=":12099945589_1" function="internal">
        <lane id=":12099945589_1_0" index="0" disallow="tram rail_urban rail rail_electric rail_fast ship container cable_car subway aircraft wheelchair scooter drone" speed="7.79" length="4.46" shape="3235.25,2215.34 3231.67,2217.34 3231.31,2217.37"/>
    </edge>
    <edge id=":12099945589_2" function="internal">
        <lane id=":12099945589_2_0" index="0" disallow="tram rail_urban rail rail_electric rail_fast ship container cable_car subway aircraft wheelchair scooter drone" speed="3.65" length="1.44" shape="3235.25,2215.34 3233.82,2215.43"/>
    </edge>
    <edge id=":12099945589_9" function="internal">
        <lane id=":12099945589_9_0" index="0" disallow="tram rail_urban rail rail_electric rail_fast ship container cable_car subway aircraft wheelchair scooter drone" speed="7.79" length="10.25" shape="3231.31,2217.37 3228.43,2217.60 3225.54,2216.12 3223.01,2212.89"/>
    </edge>
    <edge id=":12099945589_10" function="internal">
        <lane id=":12099945589_10_0" index="0" disallow="tram rail_urban rail rail_electric rail_fast ship container cable_car subway aircraft wheelchair scooter drone" speed="3.65" length="3.23" shape="3233.82,2215.43 3233.01,2215.04 3232.84,2214.16 3233.31,2212.80"/>
    </edge>
    <edge id=":12099945589_3" function="internal">
        <lane id=":12099945589_3_0" index="0" disallow="tram rail_urban rail rail_electric rail_fast ship container cable_car subway aircraft wheelchair scooter drone" speed="6.24" length="9.05" shape="3225.78,2211.29 3227.34,2213.27 3229.12,2214.19 3231.11,2214.03 3233.31,2212.80"/>
    </edge>
    <edge id=":12099945589_4" function="internal">
        <lane id=":12099945589_4_0" index="0" disallow="tram rail_urban rail rail_electric rail_fast ship container cable_car subway aircraft wheelchair scooter drone" speed="8.25" length="14.49" shape="3225.78,2211.29 3227.33,2215.05 3227.42,2218.41 3226.04,2221.35 3223.20,2223.89"/>
    </edge>
    <edge id=":12099945589_5" function="internal">
        <lane id=":12099945589_5_0" index="0" disallow="tram rail_urban rail rail_electric rail_fast ship container cable_car subway aircraft wheelchair scooter drone" speed="3.65" length="4.67" shape="3225.78,2211.29 3225.68,2212.73 3225.19,2213.47 3224.30,2213.53 3223.01,2212.89"/>
    </edge>
    <edge id=":12099945589_6" function="internal">
        <lane id=":12099945589_6_0" index="0" disallow="tram rail_urban rail rail_electric rail_fast ship container cable_car subway aircraft wheelchair scooter drone" speed="6.80" length="9.54" shape="3221.45,2221.21 3223.28,2219.56 3224.15,2217.62 3224.06,2215.40 3223.01,2212.89"/>
    </edge>
    <edge id=":12099945589_7" function="internal">
        <lane id=":12099945589_7_0" index="0" disallow="tram rail_urban rail rail_electric rail_fast ship container cable_car subway aircraft wheelchair scooter drone" speed="13.89" length="14.54" shape="3221.45,2221.21 3233.31,2212.80"/>
    </edge>
    <edge id=":12099945589_8" function="internal">
        <lane id=":12099945589_8_0" index="0" disallow="tram rail_urban rail rail_electric rail_fast ship container cable_car subway aircraft wheelchair scooter drone" speed="3.65" length="1.44" shape="3221.45,2221.21 3222.89,2221.23"/>
    </edge>
    <edge id=":12099945589_11" function="internal">
        <lane id=":12099945589_11_0" index="0" disallow="tram rail_urban rail rail_electric rail_fast ship container cable_car subway aircraft wheelchair scooter drone" speed="3.65" length="3.23" shape="3222.89,2221.23 3223.67,2221.68 3223.77,2222.57 3223.20,2223.89"/>
    </edge>
    <edge id=":12099945595_0" function="internal">
        <lane id=":12099945595_0_0" index="0" disallow="tram rail_urban rail rail_electric rail_fast ship container cable_car subway aircraft wheelchair scooter drone" speed="9.99" length="8.80" shape="2970.75,2290.12 2968.25,2290.70 2966.62,2291.49 2965.30,2292.77 2963.77,2294.85"/>
    </edge>
    <edge id=":12099945595_1" function="internal">
        <lane id=":12099945595_1_0" index="0" disallow="tram rail_urban rail rail_electric rail_fast ship container cable_car subway aircraft wheelchair scooter drone" speed="8.93" length="3.14" shape="2970.75,2290.12 2967.97,2290.29 2967.63,2290.21"/>
    </edge>
    <edge id=":12099945595_2" function="internal">
        <lane id=":12099945595_2_0" index="0" disallow="tram rail_urban rail rail_electric rail_fast ship container cable_car subway aircraft wheelchair scooter drone" speed="3.65" length="1.44" shape="2970.75,2290.12 2969.42,2289.56"/>
    </edge>
    <edge id=":12099945595_9" function="internal">
        <lane id=":12099945595_9_0" index="0" disallow="tram rail_urban rail rail_electric rail_fast ship container cable_car subway aircraft wheelchair scooter drone" speed="8.93" length="7.99" shape="2967.63,2290.21 2965.40,2289.70 2963.05,2288.36 2960.91,2286.25"/>
    </edge>
    <edge id=":12099945595_10" function="internal">
        <lane id=":12099945595_10_0" index="0" disallow="tram rail_urban rail rail_electric rail_fast ship container cable_car subway aircraft wheelchair scooter drone" speed="3.65" length="3.23" shape="2969.42,2289.56 2968.88,2288.84 2969.12,2287.98 2970.15,2286.97"/>
    </edge>
    <edge id=":12099945595_3" function="internal">
        <lane id=":12099945595_3_0" index="0" disallow="tram rail_urban rail rail_electric rail_fast ship container cable_car subway aircraft wheelchair scooter drone" speed="7.51" length="7.68" shape="2963.39,2284.23 2964.88,2285.71 2966.50,2286.66 2968.26,2287.08 2970.15,2286.97"/>
    </edge>
    <edge id=":12099945595_4" function="internal">
        <lane id=":12099945595_4_0" index="0" disallow="tram rail_urban rail rail_electric rail_fast ship container cable_car subway aircraft wheelchair scooter drone" speed="8.10" length="11.52" shape="2963.39,2284.23 2965.00,2286.83 2965.59,2289.47 2965.19,2292.14 2963.77,2294.85"/>
    </edge>
    <edge id=":12099945595_5" function="internal">
        <lane id=":12099945595_5_0" index="0" disallow="tram rail_urban rail rail_electric rail_fast ship container cable_car subway aircraft wheelchair scooter drone" speed="3.65" length="4.67" shape="2963.39,2284.23 2963.53,2285.67 2963.16,2286.48 2962.29,2286.68 2960.91,2286.25"/>
    </edge>
    <edge id=":12099945595_6" function="internal">
        <lane id=":12099945595_6_0" index="0" disallow="tram rail_urban rail rail_electric rail_fast ship container cable_car subway aircraft wheelchair scooter drone" speed="6.58" length="7.33" shape="2961.15,2293.01 2962.05,2291.29 2962.31,2289.59 2961.93,2287.91 2960.91,2286.25"/>
    </edge>
    <edge id=":12099945595_7" function="internal">
        <lane id=":12099945595_7_0" index="0" disallow="tram rail_urban rail rail_electric rail_fast ship container cable_car subway aircraft wheelchair scooter drone" speed="11.24" length="11.25" shape="2961.15,2293.01 2963.08,2290.48 2964.89,2288.81 2967.08,2287.74 2970.15,2286.97"/>
    </edge>
    <edge id=":12099945595_8" function="internal">
        <lane id=":12099945595_8_0" index="0" disallow="tram rail_urban rail rail_electric rail_fast ship container cable_car subway aircraft wheelchair scooter drone" speed="3.65" length="1.44" shape="2961.15,2293.01 2962.50,2292.49"/>
    </edge>
    <edge id=":12099945595_11" function="internal">
        <lane id=":12099945595_11_0" index="0" disallow="tram rail_urban rail rail_electric rail_fast ship container cable_car subway aircraft wheelchair scooter drone" speed="3.65" length="3.23" shape="2962.50,2292.49 2963.38,2292.62 2963.81,2293.41 2963.77,2294.85"/>
    </edge>
    <edge id=":12099945596_0" function="internal">
        <lane id=":12099945596_0_0" index="0" disallow="tram rail_urban rail rail_electric rail_fast ship container cable_car subway aircraft wheelchair scooter drone" speed="7.02" length="9.73" shape="3125.97,2272.46 3124.94,2269.86 3123.44,2268.10 3121.47,2267.19 3119.02,2267.14"/>
    </edge>
    <edge id=":12099945596_1" function="internal">
        <lane id=":12099945596_1_0" index="0" disallow="tram rail_urban rail rail_electric rail_fast ship container cable_car subway aircraft wheelchair scooter drone" speed="7.77" length="14.76" shape="3125.97,2272.46 3125.51,2268.36 3126.53,2265.28 3129.04,2263.21 3133.04,2262.16"/>
    </edge>
    <edge id=":12099945596_2" function="internal">
        <lane id=":12099945596_2_0" index="0" disallow="tram rail_urban rail rail_electric rail_fast ship container cable_car subway aircraft wheelchair scooter drone" speed="3.65" length="4.67" shape="3125.97,2272.46 3126.44,2271.10 3127.11,2270.51 3127.99,2270.70 3129.06,2271.66"/>
    </edge>
    <edge id=":12099945596_3" function="internal">
        <lane id=":12099945596_3_0" index="0" disallow="tram rail_urban rail rail_electric rail_fast ship container cable_car subway aircraft wheelchair scooter drone" speed="6.22" length="9.05" shape="3133.40,2265.34 3130.95,2265.98 3129.41,2267.25 3128.78,2269.14 3129.06,2271.66"/>
    </edge>
    <edge id=":12099945596_4" function="internal">
        <lane id=":12099945596_4_0" index="0" disallow="tram rail_urban rail rail_electric rail_fast ship container cable_car subway aircraft wheelchair scooter drone" speed="13.89" length="14.49" shape="3133.40,2265.34 3119.02,2267.14"/>
    </edge>
    <edge id=":12099945596_5" function="internal">
        <lane id=":12099945596_5_0" index="0" disallow="tram rail_urban rail rail_electric rail_fast ship container cable_car subway aircraft wheelchair scooter drone" speed="3.65" length="1.44" shape="3133.40,2265.34 3132.12,2264.68"/>
    </edge>
    <edge id=":12099945596_9" function="internal">
        <lane id=":12099945596_9_0" index="0" disallow="tram rail_urban rail rail_electric rail_fast ship container cable_car subway aircraft wheelchair scooter drone" speed="3.65" length="3.23" shape="3132.12,2264.68 3131.63,2263.93 3131.94,2263.09 3133.04,2262.16"/>
    </edge>
    <edge id=":12099945596_6" function="internal">
        <lane id=":12099945596_6_0" index="0" disallow="tram rail_urban rail rail_electric rail_fast ship container cable_car subway aircraft wheelchair scooter drone" speed="13.89" length="14.57" shape="3118.58,2263.97 3133.04,2262.16"/>
    </edge>
    <edge id=":12099945596_7" function="internal">
        <lane id=":12099945596_7_0" index="0" disallow="tram rail_urban rail rail_electric rail_fast ship container cable_car subway aircraft wheelchair scooter drone" speed="8.44" length="3.97" shape="3118.58,2263.97 3122.31,2264.03 3122.53,2264.12"/>
    </edge>
    <edge id=":12099945596_8" function="internal">
        <lane id=":12099945596_8_0" index="0" disallow="tram rail_urban rail rail_electric rail_fast ship container cable_car subway aircraft wheelchair scooter drone" speed="3.65" length="1.44" shape="3118.58,2263.97 3119.88,2264.60"/>
    </edge>
    <edge id=":12099945596_10" function="internal">
        <lane id=":12099945596_10_0" index="0" disallow="tram rail_urban rail rail_electric rail_fast ship container cable_car subway aircraft wheelchair scooter drone" speed="8.44" length="10.49" shape="3122.53,2264.12 3125.30,2265.33 3127.55,2267.87 3129.06,2271.66"/>
    </edge>
    <edge id=":12099945596_11" function="internal">
        <lane id=":12099945596_11_0" index="0" disallow="tram rail_urban rail rail_electric rail_fast ship container cable_car subway aircraft wheelchair scooter drone" speed="3.65" length="3.23" shape="3119.88,2264.60 3120.38,2265.34 3120.10,2266.18 3119.02,2267.14"/>
    </edge>
    <edge id=":12099945599_0" function="internal">
        <lane id=":12099945599_0_0" index="0" disallow="tram rail_urban rail rail_electric rail_fast ship container cable_car subway aircraft wheelchair scooter drone" speed="6.75" length="10.00" shape="3194.64,2337.96 3192.45,2336.77 3190.30,2336.71 3188.19,2337.77 3186.13,2339.95"/>
    </edge>
    <edge id=":12099945599_1" function="internal">
        <lane id=":12099945599_1_0" index="0" disallow="tram rail_urban rail rail_electric rail_fast ship container cable_car subway aircraft wheelchair scooter drone" speed="13.89" length="15.02" shape="3194.64,2337.96 3191.58,2335.80 3188.31,2333.96 3184.88,2332.41 3181.35,2331.12"/>
    </edge>
    <edge id=":12099945599_2" function="internal">
        <lane id=":12099945599_2_0" index="0" disallow="tram rail_urban rail rail_electric rail_fast ship container cable_car subway aircraft wheelchair scooter drone" speed="3.65" length="1.44" shape="3194.64,2337.96 3194.19,2336.59"/>
    </edge>
    <edge id=":12099945599_9" function="internal">
        <lane id=":12099945599_9_0" index="0" disallow="tram rail_urban rail rail_electric rail_fast ship container cable_car subway aircraft wheelchair scooter drone" speed="3.65" length="3.23" shape="3194.19,2336.59 3194.37,2335.71 3195.18,2335.33 3196.62,2335.44"/>
    </edge>
    <edge id=":12099945599_3" function="internal">
        <lane id=":12099945599_3_0" index="0" disallow="tram rail_urban rail rail_electric rail_fast ship container cable_car subway aircraft wheelchair scooter drone" speed="13.89" length="16.14" shape="3182.33,2328.08 3186.02,2329.44 3189.79,2331.18 3193.40,2333.20 3196.62,2335.44"/>
    </edge>
    <edge id=":12099945599_4" function="internal">
        <lane id=":12099945599_4_0" index="0" disallow="tram rail_urban rail rail_electric rail_fast ship container cable_car subway aircraft wheelchair scooter drone" speed="7.54" length="4.86" shape="3182.33,2328.08 3186.39,2330.05 3186.60,2330.33"/>
    </edge>
    <edge id=":12099945599_5" function="internal">
        <lane id=":12099945599_5_0" index="0" disallow="tram rail_urban rail rail_electric rail_fast ship container cable_car subway aircraft wheelchair scooter drone" speed="3.65" length="1.44" shape="3182.33,2328.08 3183.23,2329.21"/>
    </edge>
    <edge id=":12099945599_10" function="internal">
        <lane id=":12099945599_10_0" index="0" disallow="tram rail_urban rail rail_electric rail_fast ship container cable_car subway aircraft wheelchair scooter drone" speed="7.54" length="10.76" shape="3186.60,2330.33 3188.37,2332.69 3188.29,2335.99 3186.13,2339.95"/>
    </edge>
    <edge id=":12099945599_11" function="internal">
        <lane id=":12099945599_11_0" index="0" disallow="tram rail_urban rail rail_electric rail_fast ship container cable_car subway aircraft wheelchair scooter drone" speed="3.65" length="3.23" shape="3183.23,2329.21 3183.36,2330.09 3182.74,2330.73 3181.35,2331.12"/>
    </edge>
    <edge id=":12099945599_6" function="internal">
        <lane id=":12099945599_6_0" index="0" disallow="tram rail_urban rail rail_electric rail_fast ship container cable_car subway aircraft wheelchair scooter drone" speed="5.91" length="9.10" shape="3183.56,2338.04 3184.82,2335.73 3184.87,2333.81 3183.71,2332.27 3181.35,2331.12"/>
    </edge>
    <edge id=":12099945599_7" function="internal">
        <lane id=":12099945599_7_0" index="0" disallow="tram rail_urban rail rail_electric rail_fast ship container cable_car subway aircraft wheelchair scooter drone" speed="8.20" length="15.25" shape="3183.56,2338.04 3186.64,2334.83 3189.84,2333.33 3193.17,2333.54 3196.62,2335.44"/>
    </edge>
    <edge id=":12099945599_8" function="internal">
        <lane id=":12099945599_8_0" index="0" disallow="tram rail_urban rail rail_electric rail_fast ship container cable_car subway aircraft wheelchair scooter drone" speed="3.65" length="4.67" shape="3183.56,2338.04 3184.92,2337.55 3185.80,2337.71 3186.21,2338.51 3186.13,2339.95"/>
    </edge>
    <edge id=":12099945600_0" function="internal">
        <lane id=":12099945600_0_0" index="0" disallow="tram rail_urban rail rail_electric rail_fast ship container cable_car subway aircraft wheelchair scooter drone" speed="6.87" length="8.46" shape="3262.50,2388.49 3260.34,2388.10 3258.41,2388.44 3256.73,2389.52 3255.29,2391.33"/>
    </edge>
    <edge id=":12099945600_1" function="internal">
        <lane id=":12099945600_1_0" index="0" disallow="tram rail_urban rail rail_electric rail_fast ship container cable_car subway aircraft wheelchair scooter drone" speed="13.89" length="12.91" shape="3262.50,2388.49 3259.29,2387.31 3256.56,2386.00 3253.97,2384.41 3251.22,2382.37"/>
    </edge>
    <edge id=":12099945600_2" function="internal">
        <lane id=":12099945600_2_0" index="0" disallow="tram rail_urban rail rail_electric rail_fast ship container cable_car subway aircraft wheelchair scooter drone" speed="3.65" length="1.44" shape="3262.50,2388.49 3261.61,2387.36"/>
    </edge>
    <edge id=":12099945600_9" function="internal">
        <lane id=":12099945600_9_0" index="0" disallow="tram rail_urban rail rail_electric rail_fast ship container cable_car subway aircraft wheelchair scooter drone" speed="3.65" length="3.23" shape="3261.61,2387.36 3261.49,2386.47 3262.12,2385.84 3263.51,2385.46"/>
    </edge>
    <edge id=":12099945600_3" function="internal">
        <lane id=":12099945600_3_0" index="0" disallow="tram rail_urban rail rail_electric rail_fast ship container cable_car subway aircraft wheelchair scooter drone" speed="13.89" length="11.82" shape="3253.20,2379.86 3255.80,2381.81 3258.05,2383.22 3260.45,2384.35 3263.51,2385.46"/>
    </edge>
    <edge id=":12099945600_4" function="internal">