<edges xmlns:xsi="http://www.w3.org/2001/XMLSchema-instance" version="1.20" xsi:noNamespaceSchemaLocation="http://sumo.dlr.de/xsd/edges_file.xsd">
    <location netOffset="-724627.05,-937650.88" convBoundary="0.00,0.00,9174.36,7522.22" origBoundary="77.040657,8.453366,77.123779,8.545155" projParameter="+proj=utm +zone=43 +ellps=WGS84 +datum=WGS84 +units=m +no_defs" />

    <edge id="-1190753710" from="11056126786" to="11056126773" priority="1" type="highway.service" numLanes="1" speed="5.56" shape="2737.94,3453.30 2740.50,3464.61 2742.28,3476.22 2743.46,3486.15 2748.02,3494.11 2755.99,3498.88 2768.41,3502.92 2784.22,3506.06 2796.66,3507.03 2806.49,3506.79 2819.41,3505.48 2824.48,3503.67 2834.49,3499.91 2846.74,3495.04" allow="pedestrian delivery bicycle" />
    <edge id="-1234538085" from="7490045070" to="7490045018" priority="3" type="highway.residential" numLanes="1" speed="13.89" shape="6554.89,1821.76 6553.08,1818.44 6553.55,1814.10 6552.35,1809.01 6551.25,1803.78 6550.40,1796.88 6549.87,1791.10 6547.88,1786.20 6546.56,1781.07 6543.26,1772.82 6539.04,1765.79 6533.15,1759.42 6527.13,1754.17 6520.20,1751.45 6512.36,1751.19 6504.36,1741.14 6498.02,1732.66 6491.13,1723.60 6484.24,1714.89 6476.55,1707.74 6469.55,1699.14 6463.32,1691.21 6456.76,1683.28 6449.75,1676.23 6441.84,1667.40 6435.06,1659.14 6429.61,1652.32 6422.71,1644.73 6414.83,1635.23 6407.37,1627.40 6400.24,1619.03 6393.45,1611.65 6386.23,1604.17 6381.00,1597.46 6376.67,1590.87 6370.00,1582.05 6364.32,1574.58 6357.89,1565.52 6352.56,1557.50 6348.23,1550.24 6343.24,1541.32 6337.23,1534.06 6332.69,1527.13 6327.23,1521.33 6323.35,1514.41 6320.37,1508.06 6317.25,1502.81 6313.37,1496.12 6310.71,1490.88 6307.38,1485.74 6304.29,1479.05 6299.85,1471.46 6296.89,1466.96" disallow="tram rail_urban rail rail_electric rail_fast ship container cable_car subway aircraft wheelchair scooter drone" />
    <edge id="-1234538086" from="7490045018" to="7490045017" priority="4" type="highway.unclassified" numLanes="1" speed="13.89" disallow="tram rail_urban rail rail_electric rail_fast ship container cable_car subway aircraft wheelchair scooter drone" />
    <edge id="-1234538087#0" from="7490044866" to="12706461538" priority="3" type="highway.residential" numLanes="1" speed="13.89" shape="6297.90,1454.83 6294.06,1454.43 6288.46,1451.95 6284.81,1446.04 6278.71,1434.10 6271.17,1422.50 6265.19,1409.35 6259.22,1395.08 6250.80,1380.57 6241.92,1366.06 6232.81,1352.89 6225.72,1339.74 6218.85,1327.02 6213.31,1313.87 6205.07,1306.48 6195.96,1294.87 6181.51,1276.11 6169.23,1269.59 6159.67,1258.20 6148.32,1244.12 6137.19,1232.28 6127.86,1220.66 6116.50,1207.92 6107.62,1195.41 6096.92,1185.12 6087.14,1173.73 6077.57,1163.00 6069.56,1152.73 6061.56,1141.79 6053.64,1130.05 6042.77,1119.13 6033.67,1108.51 6026.62,1098.79 6019.15,1088.37 6007.52,1071.99 6003.66,1060.18 5985.72,1017.76 5962.42,984.11 5928.20,953.54 5896.49,917.04" disallow="tram rail_urban rail rail_electric rail_fast ship container cable_car subway aircraft wheelchair scooter drone" />
    <edge id="-1234538087#1" from="7490044912" to="7490044866" priority="3" type="highway.residential" numLanes="1" speed="13.89" disallow="tram rail_urban rail rail_electric rail_fast ship container cable_car subway aircraft wheelchair scooter drone" />
    <edge id="-1234538088" from="7490044914" to="7490044912" priority="4" type="highway.unclassified" numLanes="1" speed="13.89" disallow="tram rail_urban rail rail_electric rail_fast ship container cable_car subway aircraft wheelchair scooter drone" />
    <edge id="-1252014848" from="305329939" to="305329943" priority="11" type="highway.secondary" numLanes="1" speed="27.78" shape="4559.05,3540.95 4538.62,3518.67 4528.25,3504.27 4527.87,3489.33 4530.19,3477.77 4537.95,3452.69 4553.80,3415.05" disallow="tram rail_urban rail rail_electric rail_fast ship container cable_car subway aircraft wheelchair scooter drone" />
    <edge id="-1252047658#0" from="4476201854" to="305329943" priority="11" type="highway.secondary" numLanes="1" speed="27.78" disallow="tram rail_urban rail rail_electric rail_fast ship container cable_car subway aircraft wheelchair scooter drone" />
    <edge id="-1252047658#1" from="5217637768" to="4476201854" priority="11" type="highway.secondary" numLanes="1" speed="27.78" shape="4407.80,3293.85 4458.37,3321.30 4511.47,3361.78 4541.10,3391.53" disallow="tram rail_urban rail rail_electric rail_fast ship container cable_car subway aircraft wheelchair scooter drone" />
    <edge id="-1252047658#2" from="7639572860" to="5217637768" priority="11" type="highway.secondary" numLanes="1" speed="27.78" shape="4326.81,3250.42 4373.71,3275.35 4407.80,3293.85" disallow="tram rail_urban rail rail_electric rail_fast ship container cable_car subway aircraft wheelchair scooter drone" />
    <edge id="-1263672512#0" from="12123454045" to="305408654" priority="11" type="highway.secondary" numLanes="1" speed="27.78" shape="4009.51,3935.87 3964.48,3963.51 3930.45,3983.91 3900.34,4011.56 3859.19,4035.89 3820.83,4059.96 3804.89,4084.52 3794.09,4114.64" disallow="tram rail_urban rail rail_electric rail_fast ship container cable_car subway aircraft wheelchair scooter drone">
        <param key="ref" value="MDR" />
    </edge>
    <edge id="-1263672512#1" from="12123454050" to="12123454045" priority="11" type="highway.secondary" numLanes="1" speed="27.78" shape="4143.15,3889.10 4138.82,3890.81 4087.12,3907.33 4050.75,3917.10 4034.58,3921.43 4014.61,3931.19 4009.51,3935.87" disallow="tram rail_urban rail rail_electric rail_fast ship container cable_car subway aircraft wheelchair scooter drone">
        <param key="ref" value="MDR" />
    </edge>
    <edge id="-1263672512#2" from="6994354907" to="12123454050" priority="11" type="highway.secondary" numLanes="1" speed="27.78" shape="4262.81,3818.13 4253.11,3827.99 4235.60,3845.79 4213.14,3860.13 4185.79,3872.34 4143.15,3889.10" disallow="tram rail_urban rail rail_electric rail_fast ship container cable_car subway aircraft wheelchair scooter drone">
        <param key="ref" value="MDR" />
    </edge>
    <edge id="-1263672512#3" from="305329939" to="6994354907" priority="11" type="highway.secondary" numLanes="1" speed="27.78" shape="4559.05,3540.95 4512.25,3587.36 4483.19,3609.26 4466.38,3615.91 4447.65,3620.01 4425.51,3626.12 4405.04,3640.49 4388.26,3662.64 4367.15,3697.52 4347.43,3737.32 4314.26,3780.37 4296.87,3792.24 4270.62,3810.18 4262.81,3818.13" disallow="tram rail_urban rail rail_electric rail_fast ship container cable_car subway aircraft wheelchair scooter drone">
        <param key="ref" value="MDR" />
    </edge>
    <edge id="-1306480963" from="12099945559" to="8282798410" priority="3" type="highway.residential" numLanes="1" speed="13.89" shape="2891.26,1427.01 2890.38,1344.81 2881.48,1260.93 2865.27,1197.38 2851.89,1132.11 2934.18,1114.44 3010.39,1088.94" disallow="tram rail_urban rail rail_electric rail_fast ship container cable_car subway aircraft wheelchair scooter drone" />
    <edge id="-1306480965#0" from="8248499688" to="12099945585" priority="3" type="highway.residential" numLanes="1" speed="13.89" shape="3128.13,2147.71 3047.13,2046.69 2974.94,2081.05" disallow="tram rail_urban rail rail_electric rail_fast ship container cable_car subway aircraft wheelchair scooter drone" />
    <edge id="-1306480965#1" from="12099945587" to="8248499688" priority="3" type="highway.residential" numLanes="1" speed="13.89" disallow="tram rail_urban rail rail_electric rail_fast ship container cable_car subway aircraft wheelchair scooter drone" />
    <edge id="-1306480966#0" from="12099945599" to="12099945596" priority="3" type="highway.residential" numLanes="1" speed="13.89" shape="3189.90,2332.20 3159.48,2322.39 3138.78,2315.38 3125.58,2264.62" disallow="tram rail_urban rail rail_electric rail_fast ship container cable_car subway aircraft wheelchair scooter drone" />
    <edge id="-1306480966#1" from="12099945600" to="12099945599" priority="3" type="highway.residential" numLanes="1" speed="13.89" disallow="tram rail_urban rail rail_electric rail_fast ship container cable_car subway aircraft wheelchair scooter drone" />
    <edge id="-1306480966#2" from="12099945601" to="12099945600" priority="3" type="highway.residential" numLanes="1" speed="13.89" disallow="tram rail_urban rail rail_electric rail_fast ship container cable_car subway aircraft wheelchair scooter drone" />
    <edge id="-1306480967#0" from="12099945603" to="5297704614" priority="3" type="highway.residential" numLanes="1" speed="13.89" shape="3189.50,2499.20 3274.96,2532.29 3330.38,2544.72" disallow="tram rail_urban rail rail_electric rail_fast ship container cable_car subway aircraft wheelchair scooter drone" />
    <edge id="-1306480967#1" from="12099945600" to="12099945603" priority="3" type="highway.residential" numLanes="1" speed="13.89" shape="3257.22,2385.05 3231.62,2427.41 3189.50,2499.20" disallow="tram rail_urban rail rail_electric rail_fast ship container cable_car subway aircraft wheelchair scooter drone" />
    <edge id="-1306480968" from="12099945605" to="12744387558" priority="3" type="highway.residential" numLanes="1" speed="13.89" disallow="tram rail_urban rail rail_electric rail_fast ship container cable_car subway aircraft wheelchair scooter drone" />
    <edge id="-1306480969" from="12099945589" to="12099945606" priority="3" type="highway.residential" numLanes="1" speed="13.89" disallow="tram rail_urban rail rail_electric rail_fast ship container cable_car subway aircraft wheelchair scooter drone" />
    <edge id="-1306480970" from="12099945609" to="7130152884" priority="3" type="highway.residential" numLanes="1" speed="13.89" shape="3714.98,2575.52 3728.25,2617.09 3748.37,2680.46" disallow="tram rail_urban rail rail_electric rail_fast ship container cable_car subway aircraft wheelchair scooter drone" />
    <edge id="-1306480971" from="12099945613" to="12099945611" priority="3" type="highway.residential" numLanes="1" speed="13.89" shape="3434.44,2650.26 3438.63,2702.02 3450.62,2723.41" disallow="tram rail_urban rail rail_electric rail_fast ship container cable_car subway aircraft wheelchair scooter drone" />
    <edge id="-1306480972#0" from="12123700171" to="12704436011" priority="3" type="highway.residential" numLanes="1" speed="13.89" disallow="tram rail_urban rail rail_electric rail_fast ship container cable_car subway aircraft wheelchair scooter drone" />
    <edge id="-1306480972#1" from="12099945631" to="12123700171" priority="3" type="highway.residential" numLanes="1" speed="13.89" shape="3629.75,2236.93 3640.94,2245.04 3650.77,2248.87" disallow="tram rail_urban rail rail_electric rail_fast ship container cable_car subway aircraft wheelchair scooter drone" />
    <edge id="-1306480972#2" from="12099945622" to="12099945631" priority="3" type="highway.residential" numLanes="1" speed="13.89" shape="3608.27,2196.85 3622.48,2231.67 3629.75,2236.93" disallow="tram rail_urban rail rail_electric rail_fast ship container cable_car subway aircraft wheelchair scooter drone" />
    <edge id="-1306480972#3" from="12099945626" to="12099945622" priority="3" type="highway.residential" numLanes="1" speed="13.89" shape="3426.77,2141.66 3490.03,2187.01 3512.03,2196.62 3568.65,2199.29 3608.27,2196.85" disallow="tram rail_urban rail rail_electric rail_fast ship container cable_car subway aircraft wheelchair scooter drone" />
    <edge id="-1306480973" from="12099945630" to="12099945622" priority="3" type="highway.residential" numLanes="1" speed="13.89" shape="3641.27,2036.86 3637.53,2112.18 3623.94,2151.96 3614.56,2175.42 3608.27,2196.85" disallow="tram rail_urban rail rail_electric rail_fast ship container cable_car subway aircraft wheelchair scooter drone" />
    <edge id="-1306480974" from="5690096051" to="12099945643" priority="3" type="highway.residential" numLanes="1" speed="13.89" shape="3693.17,2019.47 3694.28,2079.79 3694.12,2109.42 3681.59,2143.07 3652.56,2185.84 3637.11,2220.43" disallow="tram rail_urban rail rail_electric rail_fast ship container cable_car subway aircraft wheelchair scooter drone" />
    <edge id="-1306480975" from="7130183507" to="12099945636" priority="3" type="highway.residential" numLanes="1" speed="13.89" shape="3825.30,2349.32 3832.98,2302.28 3836.88,2188.08 3838.06,2122.45 3852.94,2034.65 3843.89,1993.72 3826.47,1951.19" disallow="tram rail_urban rail rail_electric rail_fast ship container cable_car subway aircraft wheelchair scooter drone" />
    <edge id="-1306480977" from="12099945643" to="12099945644" priority="3" type="highway.residential" numLanes="1" speed="13.89" disallow="tram rail_urban rail rail_electric rail_fast ship container cable_car subway aircraft wheelchair scooter drone" />
    <edge id="-1306480978" from="12099945644" to="12099945631" priority="3" type="highway.residential" numLanes="1" speed="13.89" disallow="tram rail_urban rail rail_electric rail_fast ship container cable_car subway aircraft wheelchair scooter drone" />
    <edge id="-1306480979" from="12099945571" to="12099945647" priority="3" type="highway.residential" numLanes="1" speed="13.89" shape="3311.63,1785.28 3380.46,1727.11 3396.86,1673.82 3393.14,1634.13 3383.79,1623.45" disallow="tram rail_urban rail rail_electric rail_fast ship container cable_car subway aircraft wheelchair scooter drone" />
    <edge id="-1306480980" from="12099945647" to="12099945648" priority="3" type="highway.residential" numLanes="1" speed="13.89" disallow="tram rail_urban rail rail_electric rail_fast ship container cable_car subway aircraft wheelchair scooter drone" />
    <edge id="-1306480981" from="12099945648" to="12099945649" priority="3" type="highway.residential" numLanes="1" speed="13.89" shape="3377.82,1616.64 3368.56,1606.05 3381.25,1579.44 3418.87,1570.17" disallow="tram rail_urban rail rail_electric rail_fast ship container cable_car subway aircraft wheelchair scooter drone" />
    <edge id="-1306480982" from="12099945649" to="12099945650" priority="3" type="highway.residential" numLanes="1" speed="13.89" disallow="tram rail_urban rail rail_electric rail_fast ship container cable_car subway aircraft wheelchair scooter drone" />
    <edge id="-1306480983" from="12099945657" to="6994355193" priority="3" type="highway.residential" numLanes="1" speed="13.89" shape="2575.94,1816.38 2574.22,1817.14 2539.97,1809.22 2500.64,1874.07 2472.42,1903.34 2438.32,1949.61 2411.88,1939.95 2388.73,1971.10 2372.01,1967.64 2366.23,1977.48" disallow="tram rail_urban rail rail_electric rail_fast ship container cable_car subway aircraft wheelchair scooter drone" />
    <edge id="-1306480984" from="12099945656" to="12099945657" priority="3" type="highway.residential" numLanes="1" speed="13.89" disallow="tram rail_urban rail rail_electric rail_fast ship container cable_car subway aircraft wheelchair scooter drone" />
    <edge id="-1307887363" from="12111936942" to="12111936937" priority="3" type="highway.residential" numLanes="1" speed="13.89" shape="4665.40,1350.94 4593.62,1510.69 4585.71,1583.61 4541.77,1595.41" disallow="tram rail_urban rail rail_electric rail_fast ship container cable_car subway aircraft wheelchair scooter drone" />
    <edge id="-1308725822" from="12119584722" to="12119584719" priority="3" type="highway.residential" numLanes="1" speed="13.89" shape="5864.38,3358.27 5867.97,3392.10 5879.08,3390.74 5966.45,3355.50" disallow="tram rail_urban rail rail_electric rail_fast ship container cable_car subway aircraft wheelchair scooter drone" />
    <edge id="-1308725823" from="12119584734" to="12119584728" priority="3" type="highway.residential" numLanes="1" speed="13.89" shape="5770.81,3767.39 5687.33,3759.98 5590.62,3735.33 5523.47,3701.51 5473.43,3682.03 5445.62,3657.68 5407.78,3651.46" disallow="tram rail_urban rail rail_electric rail_fast ship container cable_car subway aircraft wheelchair scooter drone" />
    <edge id="-1308725824#0" from="12119584739" to="12119584735" priority="3" type="highway.residential" numLanes="1" speed="13.89" shape="4904.85,3907.05 4853.54,3880.45 4811.03,3843.05 4794.20,3840.48 4750.40,3850.49" disallow="tram rail_urban rail rail_electric rail_fast ship container cable_car subway aircraft wheelchair scooter drone" />
    <edge id="-1308725824#1" from="12119584740" to="12119584739" priority="3" type="highway.residential" numLanes="1" speed="13.89" disallow="tram rail_urban rail rail_electric rail_fast ship container cable_car subway aircraft wheelchair scooter drone" />
    <edge id="-1308725825" from="12119584742" to="12119584739" priority="3" type="highway.residential" numLanes="1" speed="13.89" shape="4973.81,3897.51 4930.20,3889.84 4904.85,3907.05" disallow="tram rail_urban rail rail_electric rail_fast ship container cable_car subway aircraft wheelchair scooter drone" />
    <edge id="-1308725826" from="12119584761" to="12119584747" priority="3" type="highway.residential" numLanes="1" speed="13.89" shape="5695.17,4343.32 5691.57,4348.28 5664.24,4367.17 5634.07,4383.21 5609.88,4417.24 5601.98,4420.75 5578.50,4424.18 5543.93,4427.19 5507.35,4433.58 5470.50,4458.47 5409.86,4511.69 5399.19,4532.09 5388.48,4557.12 5386.96,4607.46 5390.67,4627.86" disallow="tram rail_urban rail rail_electric rail_fast ship container cable_car subway aircraft wheelchair scooter drone" />
    <edge id="-1308725827" from="8272827484" to="12119584778" priority="3" type="highway.residential" numLanes="1" speed="13.89" shape="5956.33,4461.62 5952.51,4435.72 5946.59,4403.48 5942.82,4372.69 5917.75,4339.11 5908.13,4325.97" disallow="tram rail_urban rail rail_electric rail_fast ship container cable_car subway aircraft wheelchair scooter drone" />
    <edge id="-1308725828#0" from="12128894172" to="12744484674" priority="3" type="highway.residential" numLanes="1" speed="13.89" disallow="tram rail_urban rail rail_electric rail_fast ship container cable_car subway aircraft wheelchair scooter drone" />
    <edge id="-1308725828#1" from="7499976051" to="12128894172" priority="3" type="highway.residential" numLanes="1" speed="13.89" shape="6360.22,4565.87 6391.01,4556.54 6428.22,4536.91 6447.96,4519.05 6487.47,4478.38 6510.36,4454.34 6539.58,4413.61 6569.56,4348.10 6584.81,4295.83 6603.43,4256.59 6605.45,4226.24 6609.01,4221.34" disallow="tram rail_urban rail rail_electric rail_fast ship container cable_car subway aircraft wheelchair scooter drone" />
    <edge id="-1308725829" from="12119584806" to="7499990724" priority="3" type="highway.residential" numLanes="1" speed="13.89" shape="6338.17,4030.95 6403.11,4149.66 6420.22,4155.95 6471.21,4184.11 6480.18,4197.17 6491.29,4218.29 6495.51,4244.33 6493.22,4264.16 6487.91,4265.99 6480.60,4276.31" disallow="tram rail_urban rail rail_electric rail_fast ship container cable_car subway aircraft wheelchair scooter drone" />
    <edge id="-1308725830" from="12119584823" to="12119584821" priority="3" type="highway.residential" numLanes="1" speed="13.89" shape="6253.85,4093.66 6220.21,4076.72 6151.89,4079.21" disallow="tram rail_urban rail rail_electric rail_fast ship container cable_car subway aircraft wheelchair scooter drone" />
    <edge id="-1308725831" from="12119584824" to="12119584821" priority="3" type="highway.residential" numLanes="1" speed="13.89" disallow="tram rail_urban rail rail_electric rail_fast ship container cable_car subway aircraft wheelchair scooter drone" />
    <edge id="-1308725832" from="12119584832" to="12119584825" priority="3" type="highway.residential" numLanes="1" speed="13.89" shape="5662.13,3567.60 5640.49,3554.00 5592.17,3554.28 5571.00,3552.54 5529.12,3566.89 5515.01,3567.88 5503.56,3573.75 5439.45,3557.41" disallow="tram rail_urban rail rail_electric rail_fast ship container cable_car subway aircraft wheelchair scooter drone" />
    <edge id="-1308725833" from="5160678750" to="7494744891" priority="3" type="highway.residential" numLanes="1" speed="13.89" shape="6755.99,3231.10 6743.48,3231.75 6712.26,3223.41 6681.09,3204.85 6653.99,3195.71 6630.14,3191.90 6607.91,3192.59 6523.52,3203.18 6482.78,3201.73 6461.85,3193.03 6388.60,3118.64 6365.62,3107.49 6330.23,3108.52 6180.99,3162.90 6154.20,3168.88 6067.90,3150.43 5937.47,3150.95 5874.50,3154.69 5847.84,3136.57 5820.09,3096.36 5802.70,3039.04 5787.55,3026.28 5790.37,3011.95" disallow="tram rail_urban rail rail_electric rail_fast ship container cable_car subway aircraft wheelchair scooter drone" />
    <edge id="-1308725834" from="7633105348" to="7494745122" priority="3" type="highway.residential" numLanes="1" speed="13.89" shape="7188.71,2646.10 7173.25,2635.78 7137.87,2635.18 7117.63,2651.01 7080.17,2653.26 7071.34,2687.14 6960.52,2711.88 6929.58,2726.43 6855.07,2732.57 6812.57,2754.82 6786.51,2780.43 6731.94,2752.74 6684.71,2755.65" disallow="tram rail_urban rail rail_electric rail_fast ship container cable_car subway aircraft wheelchair scooter drone" />
    <edge id="-1308725835" from="12119584892" to="7633105174" priority="4" type="highway.unclassified" numLanes="1" speed="13.89" shape="6779.31,3084.09 6791.45,3081.48 6896.09,3056.83 6914.63,3044.26 6925.27,3008.86 6928.70,2977.25 6928.20,2967.33 6930.55,2964.79 6934.51,2957.01 6940.97,2940.73 6946.86,2931.32 6989.79,2898.92 7009.42,2859.79 7023.96,2857.17 7040.19,2865.62 7055.40,2890.92 7076.54,2920.70 7121.11,2937.66 7192.55,2953.15 7208.91,2940.29 7236.65,2905.93 7303.94,2837.79 7315.35,2812.10 7308.57,2759.88 7320.06,2719.22 7315.80,2704.23 7286.48,2678.58 7240.17,2657.71 7221.81,2652.34" disallow="tram rail_urban rail rail_electric rail_fast ship container cable_car subway aircraft wheelchair scooter drone" />
    <edge id="-1308725836" from="5160678756" to="7633105376" priority="4" type="highway.unclassified" numLanes="1" speed="13.89" shape="6790.61,3274.72 6784.57,3266.78 6772.22,3231.14 6776.48,3164.07 6778.97,3123.66 6786.54,3107.75 6792.14,3102.09 6815.10,3094.38 6897.07,3072.77 6920.24,3060.62 6934.00,3033.29 6945.28,2980.34 6948.49,2949.68 6962.28,2936.82 6994.46,2910.74 7009.87,2885.97 7018.81,2876.49 7028.63,2877.16 7033.26,2882.51 7063.26,2929.87 7099.08,2946.97 7146.12,2959.06 7184.35,2963.46 7195.47,2963.62 7205.77,2960.40 7228.83,2938.26 7232.86,2935.10 7235.76,2929.81 7273.53,2891.28 7301.90,2857.21 7314.52,2841.84 7327.44,2812.69 7326.38,2800.21 7327.14,2792.35 7329.76,2784.49 7327.93,2778.35 7319.63,2754.91 7328.66,2721.12 7328.25,2701.10 7314.88,2682.53 7279.61,2661.99 7239.45,2649.71 7238.36,2642.66 7232.74,2636.51" disallow="tram rail_urban rail rail_electric rail_fast ship container cable_car subway aircraft wheelchair scooter drone" />
    <edge id="-1308725837" from="8260325053" to="5160678756" priority="3" type="highway.residential" numLanes="1" speed="13.89" shape="6560.63,3719.65 6564.20,3697.01 6594.50,3601.92 6595.29,3570.24 6593.17,3545.40 6606.24,3522.68 6657.01,3494.65 6684.91,3482.25 6735.69,3465.27 6758.51,3450.80 6808.14,3412.46 6822.78,3387.99 6819.10,3341.53 6798.99,3285.38 6790.61,3274.72" disallow="tram rail_urban rail rail_electric rail_fast ship container cable_car subway aircraft wheelchair scooter drone" />
    <edge id="-1308727294" from="12119598062" to="12119598059" priority="3" type="highway.residential" numLanes="1" speed="13.89" shape="3195.33,2849.35 3110.78,2837.57 3105.81,2847.29 3070.45,2839.76" disallow="tram rail_urban rail rail_electric rail_fast ship container cable_car subway aircraft wheelchair scooter drone" />
    <edge id="-1309184314" from="6994354908" to="8863589467" priority="4" type="highway.unclassified" numLanes="1" speed="13.89" shape="2685.06,4238.92 2670.25,4234.92 2660.83,4222.78 2658.16,4185.40 2652.59,4121.32 2645.90,4100.29 2612.87,4047.63 2609.84,4035.52" disallow="tram rail_urban rail rail_electric rail_fast ship container cable_car subway aircraft wheelchair scooter drone" />
    <edge id="-1309184315" from="12123454009" to="12123454002" priority="3" type="highway.residential" numLanes="1" speed="13.89" shape="2960.86,4376.37 2993.54,4388.63 3009.07,4400.79 3027.46,4401.51 3066.19,4388.09 3079.40,4367.10 3090.32,4365.92 3152.21,4427.78" disallow="tram rail_urban rail rail_electric rail_fast ship container cable_car subway aircraft wheelchair scooter drone" />
    <edge id="-1309184316#0" from="12123454014" to="305408653" priority="3" type="highway.residential" numLanes="1" speed="13.89" shape="3961.69,4287.56 3913.01,4220.39 3876.01,4170.91 3818.48,4156.55 3792.17,4157.77" disallow="tram rail_urban rail rail_electric rail_fast ship container cable_car subway aircraft wheelchair scooter drone" />
    <edge id="-1309184316#1" from="12123454018" to="12123454014" priority="3" type="highway.residential" numLanes="1" speed="13.89" disallow="tram rail_urban rail rail_electric rail_fast ship container cable_car subway aircraft wheelchair scooter drone" />
    <edge id="-1309184316#2" from="7856461836" to="12123454018" priority="3" type="highway.residential" numLanes="1" speed="13.89" shape="3874.33,4339.61 3936.06,4302.37 3949.72,4295.06" disallow="tram rail_urban rail rail_electric rail_fast ship container cable_car subway aircraft wheelchair scooter drone" />
    <edge id="-1309184317#0" from="12123454022" to="12123454018" priority="3" type="highway.residential" numLanes="1" speed="13.89" shape="3984.89,4391.56 4011.80,4342.82 4011.76,4337.59 3949.72,4295.06" disallow="tram rail_urban rail rail_electric rail_fast ship container cable_car subway aircraft wheelchair scooter drone" />
    <edge id="-1309184317#1" from="12123454023" to="12123454022" priority="3" type="highway.residential" numLanes="1" speed="13.89" disallow="tram rail_urban rail rail_electric rail_fast ship container cable_car subway aircraft wheelchair scooter drone" />
    <edge id="-1309184318#0" from="12123454028" to="12123454022" priority="3" type="highway.residential" numLanes="1" speed="13.89" shape="4171.23,4357.75 4162.87,4382.96 4151.84,4392.24 4131.98,4395.87 4112.06,4396.90 4079.04,4393.26 4062.78,4397.99 4032.65,4423.45 4024.78,4422.46 3984.89,4391.56" disallow="tram rail_urban rail rail_electric rail_fast ship container cable_car subway aircraft wheelchair scooter drone" />
    <edge id="-1309184318#1" from="12123454031" to="12123454028" priority="3" type="highway.residential" numLanes="1" speed="13.89" shape="4104.65,4258.52 4104.87,4268.64 4129.00,4298.19 4155.47,4323.25 4171.23,4357.75" disallow="tram rail_urban rail rail_electric rail_fast ship container cable_car subway aircraft wheelchair scooter drone" />
    <edge id="-1309184318#2" from="12746016285" to="12123454031" priority="3" type="highway.residential" numLanes="1" speed="13.89" shape="4042.08,4222.87 4044.11,4224.90 4069.76,4237.34 4104.65,4258.52" disallow="tram rail_urban rail rail_electric rail_fast ship container cable_car subway aircraft wheelchair scooter drone" />
    <edge id="-1309184318#3" from="12123454034" to="12746016285" priority="3" type="highway.residential" numLanes="1" speed="13.89" disallow="tram rail_urban rail rail_electric rail_fast ship container cable_car subway aircraft wheelchair scooter drone" />
    <edge id="-1309184319#0" from="12123454037" to="12123454031" priority="3" type="highway.residential" numLanes="1" speed="13.89" shape="4154.30,4250.87 4122.37,4249.78 4104.65,4258.52" disallow="tram rail_urban rail rail_electric rail_fast ship container cable_car subway aircraft wheelchair scooter drone" />
    <edge id="-1309184319#1" from="12123454041" to="12123454037" priority="3" type="highway.residential" numLanes="1" speed="13.89" shape="4102.77,4060.68 4110.44,4070.61 4108.18,4080.92 4099.34,4086.56 4098.72,4092.54 4109.36,4110.83 4122.97,4121.62 4142.45,4174.89 4152.85,4218.22 4154.30,4250.87" disallow="tram rail_urban rail rail_electric rail_fast ship container cable_car subway aircraft wheelchair scooter drone" />
    <edge id="-1309184319#2" from="12123454046" to="12123454041" priority="3" type="highway.residential" numLanes="1" speed="13.89" disallow="tram rail_urban rail rail_electric rail_fast ship container cable_car subway aircraft wheelchair scooter drone" />
    <edge id="-1309184319#3" from="12123454045" to="12123454046" priority="3" type="highway.residential" numLanes="1" speed="13.89" disallow="tram rail_urban rail rail_electric rail_fast ship container cable_car subway aircraft wheelchair scooter drone" />
    <edge id="-1309184320" from="12123454050" to="12123454046" priority="3" type="highway.residential" numLanes="1" speed="13.89" shape="4143.15,3889.10 4152.46,3940.67 4150.66,3966.01 4140.00,3973.23 4057.53,3995.13" disallow="tram rail_urban rail rail_electric rail_fast ship container cable_car subway aircraft wheelchair scooter drone" />
    <edge id="-1309184321" from="8856105146" to="12123454041" priority="3" type="highway.residential" numLanes="1" speed="13.89" shape="4171.65,4032.96 4135.84,4047.78 4102.77,4060.68" disallow="tram rail_urban rail rail_electric rail_fast ship container cable_car subway aircraft wheelchair scooter drone" />
    <edge id="-1309184322" from="12746016277" to="12123454037" priority="3" type="highway.residential" numLanes="1" speed="13.89" shape="4188.12,4258.25 4172.50,4253.67 4154.30,4250.87" disallow="tram rail_urban rail rail_electric rail_fast ship container cable_car subway aircraft wheelchair scooter drone" />
    <edge id="-1309184323#0" from="12123454060" to="12746016271" priority="3" type="highway.residential" numLanes="1" speed="13.89" shape="4572.08,4362.54 4532.28,4355.85 4515.68,4353.07 4459.86,4347.73" disallow="tram rail_urban rail rail_electric rail_fast ship container cable_car subway aircraft wheelchair scooter drone" />
    <edge id="-1309184323#1" from="12746032620" to="12123454060" priority="3" type="highway.residential" numLanes="1" speed="13.89" shape="4740.99,4379.97 4726.38,4379.69 4697.05,4375.94 4681.42,4371.45 4664.22,4363.63 4645.36,4359.59 4572.08,4362.54" disallow="tram rail_urban rail rail_electric rail_fast ship container cable_car subway aircraft wheelchair scooter drone" />