<?xml version="1.0" encoding="UTF-8"?>

<!-- generated on 2026-03-17 22:43:16 by Eclipse SUMO netconvert Version 1.24.0
<netconvertConfiguration xmlns:xsi="http://www.w3.org/2001/XMLSchema-instance" xsi:noNamespaceSchemaLocation="http://sumo.dlr.de/xsd/netconvertConfiguration.xsd">

    <input>
        <sumo-net-file value="map.net.xml"/>
    </input>

    <output>
        <plain-output-prefix value="map_plain"/>
    </output>

    <processing>
        <geometry.min-radius.fix.railways value="false"/>
        <geometry.avoid-overlap value="false"/>
        <geometry.max-grade.fix value="false"/>
        <offset.disable-normalization value="true"/>
        <lefthand value="0"/>
    </processing>

    <junctions>
        <no-turnarounds value="true"/>
        <junctions.corner-detail value="5"/>
        <junctions.limit-turn-speed value="5.50"/>
        <rectangular-lane-cut value="0"/>
    </junctions>

    <pedestrian>
        <walkingareas value="0"/>
    </pedestrian>

</netconvertConfiguration>
-->

<nodes version="1.20" xmlns:xsi="http://www.w3.org/2001/XMLSchema-instance" xsi:noNamespaceSchemaLocation="http://sumo.dlr.de/xsd/nodes_file.xsd">
    <location netOffset="-724627.05,-937650.88" convBoundary="0.00,0.00,9174.36,7522.22" origBoundary="77.040657,8.453366,77.123779,8.545155" projParameter="+proj=utm +zone=43 +ellps=WGS84 +datum=WGS84 +units=m +no_defs"/>

    <node id="11056126773" x="2846.74" y="3495.04" type="priority"/>
    <node id="11056126786" x="2737.94" y="3453.30" type="priority"/>
    <node id="12099945559" x="2891.26" y="1427.01" type="priority"/>
    <node id="12099945571" x="3311.63" y="1785.28" type="priority"/>
    <node id="12099945585" x="2974.94" y="2081.05" type="priority"/>
    <node id="12099945587" x="3180.04" y="2198.64" type="priority"/>
    <node id="12099945589" x="3228.21" y="2218.71" type="priority"/>
    <node id="12099945595" x="2965.60" y="2289.47" type="priority"/>
    <node id="12099945596" x="3125.58" y="2264.62" type="priority"/>
    <node id="12099945599" x="3189.90" y="2332.20" type="priority"/>
    <node id="12099945600" x="3257.22" y="2385.05" type="priority"/>
    <node id="12099945601" x="3330.16" y="2409.32" type="priority"/>
    <node id="12099945603" x="3189.50" y="2499.20" type="priority"/>
    <node id="12099945605" x="3322.18" y="2455.79" type="priority"/>
    <node id="12099945606" x="3168.81" y="2115.69" type="priority"/>
    <node id="12099945609" x="3714.98" y="2575.52" type="priority"/>
    <node id="12099945611" x="3450.62" y="2723.41" type="priority"/>
    <node id="12099945613" x="3434.44" y="2650.26" type="priority"/>
    <node id="12099945622" x="3608.27" y="2196.85" type="priority"/>
    <node id="12099945626" x="3426.77" y="2141.66" type="priority"/>
    <node id="12099945630" x="3641.27" y="2036.86" type="priority"/>
    <node id="12099945631" x="3629.75" y="2236.93" type="priority"/>
    <node id="12099945636" x="3826.47" y="1951.19" type="priority"/>
    <node id="12099945643" x="3637.11" y="2220.43" type="priority"/>
    <node id="12099945644" x="3633.40" y="2228.75" type="priority"/>
    <node id="12099945647" x="3383.79" y="1623.45" type="priority"/>
    <node id="12099945648" x="3377.82" y="1616.64" type="priority"/>
    <node id="12099945649" x="3418.87" y="1570.17" type="priority"/>
    <node id="12099945650" x="3429.42" y="1567.57" type="priority"/>
    <node id="12099945656" x="2584.56" y="1812.55" type="priority"/>
    <node id="12099945657" x="2575.94" y="1816.38" type="priority"/>
    <node id="12111936937" x="4541.77" y="1595.41" type="priority"/>
    <node id="12111936942" x="4665.40" y="1350.94" type="priority"/>
    <node id="12119584719" x="5966.45" y="3355.50" type="priority"/>
    <node id="12119584722" x="5864.38" y="3358.27" type="priority"/>
    <node id="12119584728" x="5407.78" y="3651.46" type="priority"/>
    <node id="12119584734" x="5770.81" y="3767.39" type="priority"/>
    <node id="12119584735" x="4750.40" y="3850.49" type="priority"/>
    <node id="12119584739" x="4904.85" y="3907.05" type="priority"/>
    <node id="12119584740" x="4905.67" y="3951.05" type="priority"/>
    <node id="12119584742" x="4973.81" y="3897.51" type="priority"/>
    <node id="12119584746" x="4925.53" y="4189.50" type="priority"/>
    <node id="12119584747" x="5390.67" y="4627.86" type="priority"/>
    <node id="12119584761" x="5695.17" y="4343.32" type="priority"/>
    <node id="12119584778" x="5908.13" y="4325.97" type="priority"/>
    <node id="12119584784" x="6620.98" y="4204.88" type="priority"/>
    <node id="12119584806" x="6338.17" y="4030.95" type="priority"/>
    <node id="12119584816" x="6143.75" y="3986.10" type="priority"/>
    <node id="12119584821" x="6151.89" y="4079.21" type="priority"/>
    <node id="12119584823" x="6253.85" y="4093.66" type="priority"/>
    <node id="12119584824" x="6149.69" y="4203.85" type="priority"/>
    <node id="12119584825" x="5439.45" y="3557.41" type="priority"/>
    <node id="12119584832" x="5662.13" y="3567.60" type="priority"/>
    <node id="12119584892" x="6779.31" y="3084.09" type="priority"/>
    <node id="12119598053" x="2833.17" y="2720.10" type="priority"/>
    <node id="12119598057" x="3023.79" y="2859.93" type="priority"/>
    <node id="12119598059" x="3070.45" y="2839.76" type="priority"/>
    <node id="12119598062" x="3195.33" y="2849.35" type="priority"/>
    <node id="12123454002" x="3152.21" y="4427.78" type="priority"/>
    <node id="12123454009" x="2960.86" y="4376.37" type="priority"/>
    <node id="12123454014" x="3961.69" y="4287.56" type="priority"/>
    <node id="12123454018" x="3949.72" y="4295.06" type="priority"/>
    <node id="12123454022" x="3984.89" y="4391.56" type="priority"/>
    <node id="12123454023" x="3892.18" y="4406.38" type="priority"/>
    <node id="12123454028" x="4171.23" y="4357.75" type="priority"/>
    <node id="12123454031" x="4104.65" y="4258.52" type="priority"/>
    <node id="12123454034" x="3988.55" y="4169.05" type="priority"/>
    <node id="12123454037" x="4154.30" y="4250.87" type="priority"/>
    <node id="12123454041" x="4102.77" y="4060.68" type="priority"/>
    <node id="12123454045" x="4009.51" y="3935.87" type="priority"/>
    <node id="12123454046" x="4057.53" y="3995.13" type="priority"/>
    <node id="12123454050" x="4143.15" y="3889.10" type="priority"/>
    <node id="12123454060" x="4572.08" y="4362.54" type="priority"/>
    <node id="12123454071" x="4331.20" y="4548.97" type="priority"/>
    <node id="12123454090" x="5104.50" y="3769.80" type="priority"/>
    <node id="12123454096" x="4412.91" y="2752.76" type="priority"/>
    <node id="12123454101" x="4484.08" y="3009.44" type="priority"/>
    <node id="12123454102" x="4753.24" y="3021.65" type="priority"/>
    <node id="12123454107" x="4812.42" y="3200.60" type="priority"/>
    <node id="12123454108" x="4709.44" y="3227.76" type="priority"/>
    <node id="12123454110" x="4714.82" y="3298.37" type="priority"/>
    <node id="12123454156" x="5537.73" y="1712.48" type="priority"/>
    <node id="12123454157" x="4445.74" y="1841.98" type="priority"/>
    <node id="12123454163" x="4619.63" y="1839.97" type="priority"/>
    <node id="12123454193" x="4188.82" y="2610.76" type="priority"/>
    <node id="12123552526" x="4740.89" y="1698.54" type="priority"/>
    <node id="12123552529" x="4800.38" y="1858.57" type="priority"/>
    <node id="12123700169" x="4274.88" y="2394.79" type="priority"/>
    <node id="12123700171" x="3650.77" y="2248.87" type="priority"/>
    <node id="12123700177" x="3773.65" y="2123.44" type="priority"/>
    <node id="12123700178" x="3658.81" y="2235.58" type="priority"/>
    <node id="12123700179" x="3654.01" y="2243.52" type="priority"/>
    <node id="12123700180" x="3365.96" y="2322.88" type="priority"/>
    <node id="12123700182" x="3457.25" y="2303.64" type="priority"/>
    <node id="12123700186" x="3266.12" y="2271.26" type="priority"/>
    <node id="12123700191" x="3196.31" y="2652.19" type="priority"/>
    <node id="12123700193" x="3137.46" y="2728.03" type="priority"/>
    <node id="12128894137" x="6526.61" y="2880.61" type="priority"/>
    <node id="12128894139" x="6570.98" y="2922.30" type="priority"/>
    <node id="12128894141" x="6854.08" y="3494.67" type="priority"/>
    <node id="12128894153" x="6798.79" y="3852.91" type="priority"/>
    <node id="12128894154" x="7333.97" y="4917.69" type="priority"/>
    <node id="12128894172" x="6609.01" y="4221.34" type="priority"/>
    <node id="12128894173" x="6844.89" y="4293.86" type="priority"/>
    <node id="12128894174" x="6838.88" y="4313.75" type="priority"/>
    <node id="12128894175" x="6839.04" y="4313.22" type="priority"/>
    <node id="12128894176" x="6844.74" y="4294.39" type="priority"/>
    <node id="12128894180" x="6561.89" y="4061.36" type="priority"/>
    <node id="12128894184" x="6535.95" y="3727.58" type="priority"/>
    <node id="12128894185" x="6581.00" y="4051.55" type="priority"/>
    <node id="12128894186" x="6562.37" y="4061.11" type="priority"/>
    <node id="12128894187" x="6580.51" y="4051.80" type="priority"/>
    <node id="12218118546" x="4647.81" y="3110.81" type="priority"/>
    <node id="12218118556" x="4718.92" y="3091.55" type="priority"/>
    <node id="12704436006" x="4530.33" y="1734.75" type="priority"/>
    <node id="12704436010" x="3667.66" y="2255.43" type="priority"/>
    <node id="12704436011" x="3660.81" y="2252.77" type="priority"/>
    <node id="12704460963" x="3759.07" y="1484.83" type="priority"/>
    <node id="12706400418" x="6566.78" y="1983.84" type="priority"/>
    <node id="12706400442" x="6656.91" y="1965.22" type="priority"/>
    <node id="12706400456" x="6946.69" y="1876.46" type="priority"/>
    <node id="12706461538" x="5896.49" y="917.04" type="priority"/>
    <node id="12744319346" x="2918.17" y="2762.67" type="priority"/>
    <node id="12744319348" x="2868.14" y="2686.73" type="priority"/>
    <node id="12744319350" x="2794.34" y="3243.08" type="priority"/>
    <node id="12744319358" x="4176.67" y="2776.90" type="priority"/>
    <node id="12744319374" x="4319.72" y="2420.72" type="priority"/>
    <node id="12744319381" x="4251.48" y="3227.41" type="priority"/>
    <node id="12744344714" x="3635.40" y="3687.73" type="priority"/>
    <node id="12744344715" x="3627.50" y="3688.41" type="priority"/>
    <node id="12744344720" x="3615.35" y="3794.75" type="priority"/>
    <node id="12744344725" x="3769.82" y="4517.85" type="priority"/>
    <node id="12744344729" x="3922.39" y="4725.66" type="priority"/>
    <node id="12744344730" x="3906.19" y="4714.62" type="priority"/>
    <node id="12744344737" x="3795.81" y="4726.64" type="priority"/>
    <node id="12744387555" x="3809.93" y="2536.74" type="priority"/>
    <node id="12744387556" x="3745.26" y="2546.74" type="priority"/>
    <node id="12744387557" x="3801.72" y="2538.01" type="priority"/>
    <node id="12744387558" x="3286.42" y="2453.01" type="priority"/>
    <node id="12744387561" x="3189.81" y="2661.40" type="priority"/>
    <node id="12744387562" x="2778.03" y="2344.39" type="priority"/>
    <node id="12744387565" x="2944.71" y="2345.30" type="priority"/>
    <node id="12744387568" x="3157.58" y="2369.34" type="priority"/>
    <node id="12744387571" x="3371.46" y="2307.37" type="priority"/>
    <node id="12744484671" x="5875.28" y="4049.51" type="priority"/>
    <node id="12744484672" x="5870.11" y="4049.75" type="priority"/>
    <node id="12744484673" x="6537.48" y="3719.16" type="priority"/>
    <node id="12744484674" x="6611.26" y="4218.26" type="priority"/>
    <node id="12744484675" x="6618.11" y="4208.81" type="priority"/>
    <node id="12746016266" x="4906.41" y="4351.17" type="priority"/>
    <node id="12746016271" x="4459.86" y="4347.73" type="priority"/>
    <node id="12746016272" x="4446.00" y="4346.41" type="priority"/>
    <node id="12746016277" x="4188.12" y="4258.25" type="priority"/>
    <node id="12746016285" x="4042.08" y="4222.87" type="priority"/>
    <node id="12746016295" x="4983.12" y="5012.67" type="priority"/>
    <node id="12746016305" x="4950.26" y="4855.65" type="priority"/>
    <node id="12746016309" x="5004.37" y="4921.19" type="priority"/>
    <node id="12746016310" x="4985.96" y="4918.64" type="priority"/>
    <node id="12746030297" x="4762.65" y="4756.05" type="priority"/>
    <node id="12746032620" x="4740.99" y="4379.97" type="priority"/>
    <node id="12746032631" x="5420.33" y="4382.54" type="priority"/>
    <node id="1989431208" x="7145.30" y="5038.25" type="priority"/>
    <node id="1990367104" x="5094.94" y="5838.51" type="priority"/>
    <node id="1990367108" x="7317.83" y="4951.87" type="priority"/>
    <node id="2579853850" x="3950.37" y="1689.30" type="priority"/>
    <node id="2579853857" x="3914.92" y="1892.35" type="priority"/>
    <node id="2579853889" x="4028.13" y="2410.40" type="priority"/>
    <node id="2579853895" x="3965.69" y="2539.16" type="priority"/>
    <node id="2579853903" x="4077.97" y="2741.68" type="priority"/>
    <node id="2579853907" x="4170.91" y="2763.62" type="priority"/>
    <node id="2579853917" x="4218.22" y="2988.30" type="priority"/>
    <node id="2579863348" x="4232.84" y="1680.95" type="priority"/>
    <node id="2579875166" x="4722.40" y="3765.79" type="priority"/>
    <node id="2579875184" x="4915.02" y="4723.15" type="priority"/>
    <node id="305329885" x="5067.72" y="6667.11" type="priority"/>
    <node id="305329939" x="4559.05" y="3540.95" type="priority"/>
    <node id="305329943" x="4553.80" y="3415.05" type="priority"/>
    <node id="305329976" x="6964.42" y="5208.98" type="priority"/>
    <node id="305333149" x="5325.88" y="3172.08" type="priority"/>
    <node id="305333177" x="6608.86" y="3734.95" type="priority"/>
    <node id="305333178" x="6631.85" y="3763.21" type="priority"/>
    <node id="305333314" x="6475.90" y="1833.97" type="priority"/>
    <node id="305333326" x="7051.71" y="1998.03" type="priority"/>
    <node id="305333375" x="6808.06" y="357.90" type="priority"/>
    <node id="305408541" x="407.72" y="6329.74" type="priority"/>
    <node id="305408614" x="2882.12" y="4689.58" type="priority"/>
    <node id="305408653" x="3792.17" y="4157.77" type="priority"/>
    <node id="305408654" x="3794.09" y="4114.64" type="priority"/>
    <node id="305409101" x="0.00" y="5341.35" type="priority"/>
    <node id="3520797656" x="1766.91" y="2886.32" type="priority"/>
    <node id="3520797679" x="2287.78" y="3279.18" type="priority"/>
    <node id="3520797683" x="2412.35" y="3113.01" type="priority"/>
    <node id="3520797702" x="2775.48" y="2469.47" type="priority"/>
    <node id="3520797733" x="1571.86" y="4403.63" type="priority"/>
    <node id="353008805" x="7819.15" y="4955.10" type="priority"/>
    <node id="356662501" x="9174.36" y="1631.78" type="priority"/>
    <node id="4476201377" x="4897.41" y="2918.53" type="priority"/>
    <node id="4476201818" x="4660.38" y="3028.28" type="priority"/>
    <node id="4476201854" x="4541.10" y="3391.53" type="priority"/>
    <node id="5160678728" x="6785.41" y="2924.88" type="priority"/>
    <node id="5160678750" x="6755.99" y="3231.10" type="priority"/>
    <node id="5160678754" x="6768.14" y="3277.53" type="priority"/>
    <node id="5160678755" x="6774.03" y="3282.26" type="priority"/>
    <node id="5160678756" x="6790.61" y="3274.72" type="priority"/>
    <node id="5160678758" x="6811.94" y="3261.93" type="priority"/>
    <node id="5217637204" x="4679.72" y="2547.60" type="priority"/>
    <node id="5217637211" x="4698.78" y="2281.36" type="priority"/>
    <node id="5217637218" x="4641.38" y="2113.38" type="priority"/>
    <node id="5217637220" x="4755.61" y="2090.22" type="priority"/>
    <node id="5217637768" x="4407.80" y="3293.85" type="priority"/>
    <node id="5217637773" x="4455.49" y="3165.48" type="priority"/>
    <node id="5217638739" x="4652.47" y="2956.98" type="priority"/>
    <node id="5217644089" x="5120.30" y="3371.91" type="priority"/>
    <node id="5217644091" x="5200.99" y="3467.25" type="priority"/>
    <node id="5217644097" x="5436.07" y="3527.43" type="priority"/>
    <node id="5217648823" x="4789.42" y="4035.89" type="priority"/>
    <node id="5217834249" x="7238.72" y="3482.40" type="priority"/>
    <node id="5297704581" x="2636.28" y="1480.07" type="priority"/>
    <node id="5297704604" x="3461.18" y="1947.62" type="priority"/>
    <node id="5297704614" x="3330.38" y="2544.72" type="priority"/>
    <node id="5297704617" x="3360.38" y="2679.58" type="priority"/>
    <node id="5297704639" x="2203.51" y="748.55" type="priority"/>
    <node id="5312654304" x="2283.86" y="7522.22" type="priority"/>
    <node id="5312654466" x="4768.93" y="4748.69" type="priority"/>
    <node id="5690096051" x="3693.17" y="2019.47" type="priority"/>
    <node id="5720344166" x="2520.17" y="3528.78" type="priority"/>
    <node id="6236074057" x="7681.78" y="2104.44" type="priority"/>
    <node id="6559874248" x="3240.70" y="2791.85" type="priority"/>
    <node id="6914762585" x="2914.44" y="4563.53" type="priority"/>
    <node id="6994352963" x="1853.31" y="1596.16" type="priority"/>
    <node id="6994354801" x="2729.01" y="3708.55" type="priority"/>
    <node id="6994354815" x="2962.42" y="3764.06" type="priority"/>
    <node id="6994354816" x="2992.80" y="3753.65" type="priority"/>
    <node id="6994354826" x="3204.76" y="3975.49" type="priority"/>
    <node id="6994354827" x="3342.60" y="4444.06" type="priority"/>
    <node id="6994354873" x="4281.74" y="3494.73" type="priority"/>
    <node id="6994354907" x="4262.81" y="3818.13" type="priority"/>
    <node id="6994354908" x="2685.06" y="4238.92" type="priority"/>
    <node id="6994354912" x="2760.74" y="4365.45" type="priority"/>
    <node id="6994354962" x="3443.01" y="4422.74" type="priority"/>
    <node id="6994355060" x="1766.45" y="2236.01" type="priority"/>
    <node id="6994355158" x="2108.49" y="2614.89" type="priority"/>
    <node id="6994355162" x="2151.22" y="2649.13" type="priority"/>
    <node id="6994355191" x="2488.98" y="2703.86" type="priority"/>
    <node id="6994355193" x="2366.23" y="1977.48" type="priority"/>
    <node id="6994355226" x="2151.28" y="2038.08" type="priority"/>
    <node id="7043080762" x="2923.62" y="2765.39" type="priority"/>
    <node id="7043080764" x="3006.52" y="2760.37" type="priority"/>
    <node id="7043080765" x="3044.71" y="2662.42" type="priority"/>
    <node id="7128163559" x="3548.60" y="641.79" type="priority"/>
    <node id="7128171716" x="5043.91" y="3385.08" type="priority"/>
    <node id="7128171723" x="5067.80" y="3565.09" type="priority"/>
    <node id="7128171727" x="5310.59" y="3193.10" type="priority"/>
    <node id="7128171735" x="5250.49" y="3272.66" type="priority"/>
    <node id="7128171744" x="5177.14" y="3121.12" type="priority"/>
    <node id="7130107670" x="4683.17" y="3643.12" type="priority"/>
    <node id="7130107678" x="4862.80" y="3407.97" type="priority"/>
    <node id="7130152880" x="3843.55" y="2658.50" type="priority"/>
    <node id="7130152884" x="3748.37" y="2680.46" type="priority"/>
    <node id="7130181507" x="4051.76" y="2977.82" type="priority"/>
    <node id="7130183507" x="3825.30" y="2349.32" type="priority"/>
    <node id="7130200688" x="4149.09" y="3688.99" type="priority"/>
    <node id="7130200692" x="4071.39" y="3743.02" type="priority"/>
    <node id="7130200709" x="3581.52" y="3951.43" type="priority"/>
    <node id="7130200712" x="3576.94" y="4095.53" type="priority"/>
    <node id="7130352054" x="5947.19" y="3210.70" type="priority"/>
    <node id="7431356774" x="4071.58" y="2747.06" type="priority"/>
    <node id="7462940456" x="7153.36" y="2100.90" type="priority"/>
    <node id="7469456072" x="2628.96" y="4258.75" type="priority"/>
    <node id="7469461314" x="2588.38" y="4389.86" type="priority"/>
    <node id="7481845636" x="2397.59" y="3133.81" type="priority"/>
    <node id="7490035434" x="6692.32" y="320.27" type="priority"/>
    <node id="7490044866" x="6297.90" y="1454.83" type="priority"/>
    <node id="7490044912" x="6300.76" y="1455.13" type="priority"/>
    <node id="7490044914" x="6307.94" y="1453.83" type="priority"/>
    <node id="7490045011" x="6559.49" y="1822.20" type="priority"/>
    <node id="7490045017" x="6295.33" y="1464.05" type="priority"/>
    <node id="7490045018" x="6296.89" y="1466.96" type="priority"/>
    <node id="7490045070" x="6554.89" y="1821.76" type="priority"/>
    <node id="7490045145" x="5820.31" y="1522.57" type="priority"/>
    <node id="7490045208" x="5587.49" y="1255.11" type="priority"/>
    <node id="7490045209" x="5744.04" y="1537.92" type="priority"/>
    <node id="7490045253" x="5499.83" y="1512.62" type="priority"/>
    <node id="7490045256" x="5713.86" y="1671.76" type="priority"/>
    <node id="7490045337" x="5401.73" y="2046.98" type="priority"/>
    <node id="7490045339" x="5706.37" y="2261.70" type="priority"/>
    <node id="7490045377" x="5503.76" y="2104.98" type="priority"/>
    <node id="7490045516" x="4828.51" y="1643.10" type="priority"/>
    <node id="7490045517" x="5104.88" y="1858.70" type="priority"/>
    <node id="7490045522" x="5110.15" y="1822.38" type="priority"/>
    <node id="7490045593" x="4933.65" y="1550.60" type="priority"/>
    <node id="7490045594" x="5109.40" y="1757.54" type="priority"/>
    <node id="7490045659" x="5282.83" y="1561.40" type="priority"/>
    <node id="7490045660" x="6700.59" y="1781.17" type="priority"/>
    <node id="7490045693" x="6825.67" y="1819.01" type="priority"/>
    <node id="7490045730" x="6833.18" y="1910.71" type="priority"/>
    <node id="7490045732" x="6873.70" y="1864.39" type="priority"/>
    <node id="7490045871" x="7256.24" y="793.91" type="priority"/>
    <node id="7490046113" x="5867.39" y="955.85" type="priority"/>
    <node id="7490046115" x="6536.44" y="1822.39" type="priority"/>
    <node id="7494737381" x="5563.90" y="2843.20" type="priority"/>
    <node id="7494744794" x="5643.89" y="2852.87" type="priority"/>
    <node id="7494744802" x="5714.62" y="3102.44" type="priority"/>
    <node id="7494744823" x="5698.89" y="2939.36" type="priority"/>
    <node id="7494744880" x="5720.89" y="3003.95" type="priority"/>
    <node id="7494744891" x="5790.37" y="3011.95" type="priority"/>
    <node id="7494745082" x="6473.94" y="2766.99" type="priority"/>
    <node id="7494745122" x="6684.71" y="2755.65" type="priority"/>
    <node id="7494745124" x="6642.41" y="2740.77" type="priority"/>
    <node id="7494745174" x="6762.93" y="2626.39" type="priority"/>
    <node id="7494745268" x="6494.63" y="2429.04" type="priority"/>
    <node id="7494745517" x="6947.47" y="2302.37" type="priority"/>
    <node id="7494745518" x="6954.95" y="2296.79" type="priority"/>
    <node id="7497916763" x="6399.65" y="3701.94" type="priority"/>
    <node id="7497916768" x="6419.42" y="3768.83" type="priority"/>
    <node id="7497933206" x="4314.64" y="750.71" type="priority"/>
    <node id="7497937513" x="5176.66" y="2583.63" type="priority"/>
    <node id="7497937516" x="5222.89" y="2574.40" type="priority"/>
    <node id="7497937526" x="5257.54" y="2683.86" type="priority"/>
    <node id="7497941748" x="5084.59" y="1420.71" type="priority"/>
    <node id="7497941779" x="5158.93" y="1652.28" type="priority"/>
    <node id="7497953697" x="5488.53" y="4134.11" type="priority"/>
    <node id="7498836314" x="5528.06" y="3098.04" type="priority"/>
    <node id="7498836362" x="5591.50" y="3294.50" type="priority"/>
    <node id="7498858200" x="5597.62" y="3314.75" type="priority"/>
    <node id="7498858353" x="6086.08" y="3751.74" type="priority"/>
    <node id="7498858410" x="6342.83" y="3687.36" type="priority"/>
    <node id="7498858412" x="6242.26" y="3724.37" type="priority"/>
    <node id="7498858478" x="6068.29" y="3486.45" type="priority"/>
    <node id="7498858526" x="6148.09" y="3273.08" type="priority"/>
    <node id="7498858608" x="5867.90" y="4049.85" type="priority"/>
    <node id="7498858669" x="5973.88" y="4281.28" type="priority"/>
    <node id="7498858688" x="6035.17" y="4338.74" type="priority"/>
    <node id="7498858691" x="6047.84" y="4348.37" type="priority"/>
    <node id="7498858759" x="6316.44" y="4289.54" type="priority"/>
    <node id="7498858801" x="6157.79" y="4478.10" type="priority"/>
    <node id="7498858805" x="6138.44" y="4496.01" type="priority"/>
    <node id="7498859051" x="5306.50" y="4930.32" type="priority"/>
    <node id="7498859104" x="5164.81" y="4828.25" type="priority"/>
    <node id="7499952683" x="6469.96" y="4815.30" type="priority"/>
    <node id="7499976051" x="6360.22" y="4565.87" type="priority"/>
    <node id="7499976057" x="6398.53" y="4616.15" type="priority"/>
    <node id="7499981386" x="4864.59" y="4229.66" type="priority"/>
    <node id="7499981424" x="5430.41" y="4153.63" type="priority"/>
    <node id="7499990724" x="6480.60" y="4276.31" type="priority"/>
    <node id="7499999883" x="6587.22" y="4909.93" type="priority"/>
    <node id="7500001488" x="4066.98" y="3796.68" type="priority"/>
    <node id="7500027539" x="6739.14" y="5082.93" type="priority"/>
    <node id="7500027559" x="6629.35" y="4917.83" type="priority"/>
    <node id="7500130299" x="2132.51" y="6408.52" type="priority"/>
    <node id="7500159235" x="3066.15" y="5105.26" type="priority"/>
    <node id="7500170603" x="2955.96" y="5695.85" type="priority"/>
    <node id="7501432282" x="6244.88" y="4433.41" type="priority"/>
    <node id="7501462715" x="6136.09" y="4349.28" type="priority"/>
    <node id="7631761546" x="5503.14" y="2794.21" type="priority"/>
    <node id="7631761575" x="5556.64" y="2640.83" type="priority"/>
    <node id="7631761580" x="5510.65" y="2698.12" type="priority"/>
    <node id="7631773290" x="5474.32" y="2710.17" type="priority"/>
    <node id="7631773293" x="5530.50" y="2788.37" type="priority"/>
    <node id="7633105174" x="7221.81" y="2652.34" type="priority"/>
    <node id="7633105252" x="7031.90" y="2823.27" type="priority"/>
    <node id="7633105348" x="7188.71" y="2646.10" type="priority"/>
    <node id="7633105376" x="7232.74" y="2636.51" type="priority"/>
    <node id="7635938058" x="5775.99" y="2927.59" type="priority"/>
    <node id="7635938067" x="5624.97" y="2395.35" type="priority"/>
    <node id="7635938082" x="5566.57" y="2400.47" type="priority"/>
    <node id="7635938083" x="5543.27" y="2887.26" type="priority"/>
    <node id="7635938498" x="5500.01" y="2871.86" type="priority"/>
    <node id="7635952734" x="4366.31" y="3356.49" type="priority"/>
    <node id="7635952760" x="4208.12" y="3628.08" type="priority"/>
    <node id="7639402161" x="4105.93" y="3108.20" type="priority"/>
    <node id="7639402174" x="3208.12" y="2775.63" type="priority"/>
    <node id="7639402182" x="1833.09" y="1580.92" type="priority"/>
    <node id="7639572819" x="3378.77" y="2749.87" type="priority"/>
    <node id="7639572830" x="3578.92" y="2964.53" type="priority"/>
    <node id="7639572832" x="3642.60" y="2988.93" type="priority"/>
    <node id="7639572850" x="4067.43" y="3089.22" type="priority"/>
    <node id="7639572856" x="4229.22" y="3218.04" type="priority"/>
    <node id="7639572860" x="4326.81" y="3250.42" type="priority"/>
    <node id="7639572861" x="4153.98" y="3201.16" type="priority"/>
    <node id="7648842943" x="3806.33" y="1744.41" type="priority"/>
    <node id="7648842945" x="3927.59" y="1575.89" type="priority"/>
    <node id="7648843310" x="3830.46" y="1730.76" type="priority"/>
    <node id="7648843329" x="3835.94" y="1316.37" type="priority"/>
    <node id="7802412004" x="4854.25" y="3186.75" type="priority"/>
    <node id="7802412016" x="4642.20" y="3236.57" type="priority"/>
    <node id="7856100281" x="6223.26" y="3328.59" type="priority"/>
    <node id="7856461834" x="3891.57" y="4884.97" type="priority"/>
    <node id="7856461836" x="3874.33" y="4339.61" type="priority"/>
    <node id="7856461840" x="3791.09" y="4254.93" type="priority"/>
    <node id="7895109309" x="4207.84" y="2884.28" type="priority"/>
    <node id="7895109337" x="4671.50" y="2735.84" type="priority"/>
    <node id="7900234536" x="6202.91" y="4575.61" type="priority"/>
    <node id="7900234539" x="6275.88" y="4572.88" type="priority"/>
    <node id="7900316130" x="6231.17" y="4810.05" type="priority"/>
    <node id="7900316139" x="5985.76" y="5054.61" type="priority"/>
    <node id="7900325062" x="5335.90" y="5411.59" type="priority"/>
    <node id="7924904552" x="4766.22" y="4025.67" type="priority"/>
    <node id="7924904566" x="4645.43" y="4166.60" type="priority"/>
    <node id="7926985668" x="4218.05" y="2954.93" type="priority"/>
    <node id="7926985670" x="4127.52" y="2943.67" type="priority"/>
    <node id="7926986809" x="4895.81" y="4319.96" type="priority"/>
    <node id="7926990824" x="4749.31" y="4040.75" type="priority"/>
    <node id="7926990835" x="4580.60" y="3789.43" type="priority"/>
    <node id="7926993374" x="4184.16" y="2795.94" type="priority"/>
    <node id="7926993377" x="4145.40" y="2808.37" type="priority"/>
    <node id="7926996802" x="4111.15" y="2978.64" type="priority"/>
    <node id="7926996814" x="4063.54" y="2825.36" type="priority"/>
    <node id="7927004066" x="4156.59" y="2707.48" type="priority"/>
    <node id="7955410411" x="6545.10" y="1822.10" type="priority"/>
    <node id="7955410412" x="6551.71" y="1821.95" type="priority"/>
    <node id="7962751624" x="4786.79" y="3932.82" type="priority"/>
    <node id="7994192950" x="5616.88" y="2544.95" type="priority"/>
    <node id="7994192952" x="5548.00" y="2483.34" type="priority"/>
    <node id="7996580424" x="3794.62" y="0.00" type="priority"/>
    <node id="8007402685" x="2728.73" y="2372.71" type="priority"/>
    <node id="8007402688" x="2867.33" y="2284.42" type="priority"/>
    <node id="8242419935" x="3701.51" y="1869.49" type="priority"/>