<?xml version="1.0" encoding="UTF-8"?>

<!-- generated on 2026-03-17 22:43:16 by Eclipse SUMO netconvert Version 1.24.0
<netconvertConfiguration xmlns:xsi="http://www.w3.org/2001/XMLSchema-instance" xsi:noNamespaceSchemaLocation="http://sumo.dlr.de/xsd/netconvertConfiguration.xsd">

    <input>
        <sumo-net-file value="map.net.xml"/>
    </input>

    <output>
        <plain-output-prefix value="map_plain"/>
    </output>

    <processing>
        <geometry.min-radius.fix.railways value="false"/>
        <geometry.avoid-overlap value="false"/>
        <geometry.max-grade.fix value="false"/>
        <offset.disable-normalization value="true"/>
        <lefthand value="0"/>
    </processing>

    <junctions>
        <no-turnarounds value="true"/>
        <junctions.corner-detail value="5"/>
        <junctions.limit-turn-speed value="5.50"/>
        <rectangular-lane-cut value="0"/>
    </junctions>

    <pedestrian>
        <walkingareas value="0"/>
    </pedestrian>

</netconvertConfiguration>
-->

<connections version="1.20" xmlns:xsi="http://www.w3.org/2001/XMLSchema-instance" xsi:noNamespaceSchemaLocation="http://sumo.dlr.de/xsd/connections_file.xsd">
    <connection from="-1190753710" to="-753822886#2" fromLane="0" toLane="0"/>
    <connection from="-1190753710" to="753822886#3" fromLane="0" toLane="0"/>
    <connection from="-1190753710" to="1190753710" fromLane="0" toLane="0"/>

    <connection from="-1234538085" to="-1234538086" fromLane="0" toLane="0"/>

    <connection from="-1234538086" to="-800789133#1" fromLane="0" toLane="0"/>

    <connection from="-1234538087#0" to="1234538087#0" fromLane="0" toLane="0"/>

    <connection from="-1234538087#1" to="800789133#1" fromLane="0" toLane="0"/>
    <connection from="-1234538087#1" to="-1234538087#0" fromLane="0" toLane="0"/>
    <connection from="-1234538087#1" to="-800789133#0" fromLane="0" toLane="0"/>
    <connection from="-1234538087#1" to="1234538087#1" fromLane="0" toLane="0"/>

    <connection from="-1234538088" to="-1234538087#1" fromLane="0" toLane="0"/>

    <connection from="-1252014848" to="747493591" fromLane="0" toLane="0"/>
    <connection from="-1252014848" to="1252047658#0" fromLane="0" toLane="0"/>
    <connection from="-1252014848" to="905715082#0" fromLane="0" toLane="0"/>
    <connection from="-1252014848" to="1252014848" fromLane="0" toLane="0"/>

    <connection from="-1252047658#0" to="905715082#0" fromLane="0" toLane="0"/>
    <connection from="-1252047658#0" to="1252014848" fromLane="0" toLane="0"/>
    <connection from="-1252047658#0" to="747493591" fromLane="0" toLane="0"/>
    <connection from="-1252047658#0" to="1252047658#0" fromLane="0" toLane="0"/>

    <connection from="-1252047658#1" to="-450700266#6" fromLane="0" toLane="0"/>
    <connection from="-1252047658#1" to="-1252047658#0" fromLane="0" toLane="0"/>
    <connection from="-1252047658#1" to="1252047658#1" fromLane="0" toLane="0"/>

    <connection from="-1252047658#2" to="539178050#0" fromLane="0" toLane="0"/>
    <connection from="-1252047658#2" to="-1252047658#1" fromLane="0" toLane="0"/>
    <connection from="-1252047658#2" to="817621046" fromLane="0" toLane="0"/>
    <connection from="-1252047658#2" to="1252047658#2" fromLane="0" toLane="0"/>

    <connection from="-1263672512#0" to="-23314618#7" fromLane="0" toLane="0"/>
    <connection from="-1263672512#0" to="27814526#0" fromLane="0" toLane="0"/>
    <connection from="-1263672512#0" to="1263672512#0" fromLane="0" toLane="0"/>

    <connection from="-1263672512#1" to="-1309184319#3" fromLane="0" toLane="0"/>
    <connection from="-1263672512#1" to="-1263672512#0" fromLane="0" toLane="0"/>
    <connection from="-1263672512#1" to="1263672512#1" fromLane="0" toLane="0"/>

    <connection from="-1263672512#2" to="-1309184320" fromLane="0" toLane="0"/>
    <connection from="-1263672512#2" to="-1263672512#1" fromLane="0" toLane="0"/>
    <connection from="-1263672512#2" to="1263672512#2" fromLane="0" toLane="0"/>

    <connection from="-1263672512#3" to="-890002798#2" fromLane="0" toLane="0"/>
    <connection from="-1263672512#3" to="-1263672512#2" fromLane="0" toLane="0"/>
    <connection from="-1263672512#3" to="-747493592#3" fromLane="0" toLane="0"/>
    <connection from="-1263672512#3" to="1263672512#3" fromLane="0" toLane="0"/>

    <connection from="-1306480963" to="891165121#1" fromLane="0" toLane="0"/>
    <connection from="-1306480963" to="-891165121#0" fromLane="0" toLane="0"/>
    <connection from="-1306480963" to="1306480963" fromLane="0" toLane="0"/>

    <connection from="-1306480965#0" to="1306480965#0" fromLane="0" toLane="0"/>

    <connection from="-1306480965#1" to="887054166#4" fromLane="0" toLane="0"/>
    <connection from="-1306480965#1" to="-1306480965#0" fromLane="0" toLane="0"/>
    <connection from="-1306480965#1" to="-887054166#3" fromLane="0" toLane="0"/>
    <connection from="-1306480965#1" to="1306480965#1" fromLane="0" toLane="0"/>

    <connection from="-1306480966#0" to="859009059#2" fromLane="0" toLane="0"/>
    <connection from="-1306480966#0" to="-859009059#1" fromLane="0" toLane="0"/>
    <connection from="-1306480966#0" to="1306480966#0" fromLane="0" toLane="0"/>

    <connection from="-1306480966#1" to="1376441513" fromLane="0" toLane="0"/>
    <connection from="-1306480966#1" to="-1306480966#0" fromLane="0" toLane="0"/>
    <connection from="-1306480966#1" to="1306480966#1" fromLane="0" toLane="0"/>

    <connection from="-1306480966#2" to="-1306480967#1" fromLane="0" toLane="0"/>
    <connection from="-1306480966#2" to="-1306480966#1" fromLane="0" toLane="0"/>
    <connection from="-1306480966#2" to="1306480966#2" fromLane="0" toLane="0"/>

    <connection from="-1306480967#0" to="-1372011600#6" fromLane="0" toLane="0"/>
    <connection from="-1306480967#0" to="1372011600#7" fromLane="0" toLane="0"/>
    <connection from="-1306480967#0" to="1306480967#0" fromLane="0" toLane="0"/>

    <connection from="-1306480967#1" to="-1306480967#0" fromLane="0" toLane="0"/>
    <connection from="-1306480967#1" to="1309221442" fromLane="0" toLane="0"/>
    <connection from="-1306480967#1" to="1306480967#1" fromLane="0" toLane="0"/>

    <connection from="-1306480968" to="1306480968" fromLane="0" toLane="0"/>

    <connection from="-1306480969" to="887054166#3" fromLane="0" toLane="0"/>
    <connection from="-1306480969" to="-887054166#2" fromLane="0" toLane="0"/>
    <connection from="-1306480969" to="1306480969" fromLane="0" toLane="0"/>

    <connection from="-1306480970" to="-763020805#2" fromLane="0" toLane="0"/>
    <connection from="-1306480970" to="763020805#3" fromLane="0" toLane="0"/>
    <connection from="-1306480970" to="1306480970" fromLane="0" toLane="0"/>

    <connection from="-1306480971" to="-763020805#4" fromLane="0" toLane="0"/>
    <connection from="-1306480971" to="763020805#5" fromLane="0" toLane="0"/>
    <connection from="-1306480971" to="1306480971" fromLane="0" toLane="0"/>

    <connection from="-1306480972#0" to="-1372009228" fromLane="0" toLane="0"/>

    <connection from="-1306480972#1" to="1309221439" fromLane="0" toLane="0"/>
    <connection from="-1306480972#1" to="-1306480972#0" fromLane="0" toLane="0"/>
    <connection from="-1306480972#1" to="1306480972#1" fromLane="0" toLane="0"/>

    <connection from="-1306480972#2" to="1306480978" fromLane="0" toLane="0"/>
    <connection from="-1306480972#2" to="-1306480972#1" fromLane="0" toLane="0"/>
    <connection from="-1306480972#2" to="1306480972#2" fromLane="0" toLane="0"/>

    <connection from="-1306480972#3" to="1306480973" fromLane="0" toLane="0"/>
    <connection from="-1306480972#3" to="-1306480972#2" fromLane="0" toLane="0"/>
    <connection from="-1306480972#3" to="1306480972#3" fromLane="0" toLane="0"/>

    <connection from="-1306480973" to="-1306480972#2" fromLane="0" toLane="0"/>
    <connection from="-1306480973" to="1306480972#3" fromLane="0" toLane="0"/>
    <connection from="-1306480973" to="1306480973" fromLane="0" toLane="0"/>

    <connection from="-1306480974" to="-1306480977" fromLane="0" toLane="0"/>

    <connection from="-1306480975" to="-597693449#2" fromLane="0" toLane="0"/>
    <connection from="-1306480975" to="597693449#3" fromLane="0" toLane="0"/>
    <connection from="-1306480975" to="1306480975" fromLane="0" toLane="0"/>

    <connection from="-1306480977" to="-1306480978" fromLane="0" toLane="0"/>

    <connection from="-1306480978" to="-1306480972#1" fromLane="0" toLane="0"/>
    <connection from="-1306480978" to="1306480972#2" fromLane="0" toLane="0"/>
    <connection from="-1306480978" to="1306480978" fromLane="0" toLane="0"/>

    <connection from="-1306480979" to="-1306480980" fromLane="0" toLane="0"/>

    <connection from="-1306480980" to="-1306480981" fromLane="0" toLane="0"/>

    <connection from="-1306480981" to="-1306480982" fromLane="0" toLane="0"/>

    <connection from="-1306480982" to="-819032411#1" fromLane="0" toLane="0"/>

    <connection from="-1306480983" to="-817981377#14" fromLane="0" toLane="0"/>
    <connection from="-1306480983" to="817981377#15" fromLane="0" toLane="0"/>
    <connection from="-1306480983" to="1306480983" fromLane="0" toLane="0"/>

    <connection from="-1306480984" to="-1306480983" fromLane="0" toLane="0"/>

    <connection from="-1307887363" to="801622727#1" fromLane="0" toLane="0"/>
    <connection from="-1307887363" to="-801622727#0" fromLane="0" toLane="0"/>
    <connection from="-1307887363" to="1307887363" fromLane="0" toLane="0"/>

    <connection from="-1308725822" to="801709800#1" fromLane="0" toLane="0"/>
    <connection from="-1308725822" to="-801709800#0" fromLane="0" toLane="0"/>
    <connection from="-1308725822" to="1308725822" fromLane="0" toLane="0"/>

    <connection from="-1308725823" to="539179122#4" fromLane="0" toLane="0"/>
    <connection from="-1308725823" to="-539179122#3" fromLane="0" toLane="0"/>
    <connection from="-1308725823" to="1308725823" fromLane="0" toLane="0"/>

    <connection from="-1308725824#0" to="853719671#1" fromLane="0" toLane="0"/>
    <connection from="-1308725824#0" to="-853719671#0" fromLane="0" toLane="0"/>
    <connection from="-1308725824#0" to="1308725824#0" fromLane="0" toLane="0"/>

    <connection from="-1308725824#1" to="-1308725824#0" fromLane="0" toLane="0"/>
    <connection from="-1308725824#1" to="1308725825" fromLane="0" toLane="0"/>
    <connection from="-1308725824#1" to="1308725824#1" fromLane="0" toLane="0"/>

    <connection from="-1308725825" to="1308725824#1" fromLane="0" toLane="0"/>
    <connection from="-1308725825" to="-1308725824#0" fromLane="0" toLane="0"/>
    <connection from="-1308725825" to="1308725825" fromLane="0" toLane="0"/>

    <connection from="-1308725826" to="889997418#1" fromLane="0" toLane="0"/>
    <connection from="-1308725826" to="-889997418#0" fromLane="0" toLane="0"/>
    <connection from="-1308725826" to="1308725826" fromLane="0" toLane="0"/>

    <connection from="-1308725827" to="-801626450#0" fromLane="0" toLane="0"/>
    <connection from="-1308725827" to="801626450#1" fromLane="0" toLane="0"/>
    <connection from="-1308725827" to="1308725827" fromLane="0" toLane="0"/>

    <connection from="-1308725828#0" to="-1376446262" fromLane="0" toLane="0"/>

    <connection from="-1308725828#1" to="1309989511#0" fromLane="0" toLane="0"/>
    <connection from="-1308725828#1" to="-1308725828#0" fromLane="0" toLane="0"/>
    <connection from="-1308725828#1" to="-1309989507#1" fromLane="0" toLane="0"/>
    <connection from="-1308725828#1" to="1308725828#1" fromLane="0" toLane="0"/>

    <connection from="-1308725829" to="-801835154" fromLane="0" toLane="0"/>
    <connection from="-1308725829" to="1308725829" fromLane="0" toLane="0"/>

    <connection from="-1308725830" to="1308725831" fromLane="0" toLane="0"/>
    <connection from="-1308725830" to="-1376642499" fromLane="0" toLane="0"/>
    <connection from="-1308725830" to="1308725830" fromLane="0" toLane="0"/>

    <connection from="-1308725831" to="-1376642499" fromLane="0" toLane="0"/>
    <connection from="-1308725831" to="1308725830" fromLane="0" toLane="0"/>
    <connection from="-1308725831" to="1308725831" fromLane="0" toLane="0"/>

    <connection from="-1308725832" to="539179122#3" fromLane="0" toLane="0"/>
    <connection from="-1308725832" to="-539179122#2" fromLane="0" toLane="0"/>
    <connection from="-1308725832" to="1308725832" fromLane="0" toLane="0"/>

    <connection from="-1308725833" to="-801345978#0" fromLane="0" toLane="0"/>
    <connection from="-1308725833" to="801345978#1" fromLane="0" toLane="0"/>
    <connection from="-1308725833" to="1308725833" fromLane="0" toLane="0"/>

    <connection from="-1308725834" to="-801345978#3" fromLane="0" toLane="0"/>

    <connection from="-1308725835" to="817303364#0" fromLane="0" toLane="0"/>

    <connection from="-1308725836" to="1308725836" fromLane="0" toLane="0"/>

    <connection from="-1308725837" to="820874824" fromLane="0" toLane="0"/>
    <connection from="-1308725837" to="-1308725836" fromLane="0" toLane="0"/>
    <connection from="-1308725837" to="-531663745#2" fromLane="0" toLane="0"/>
    <connection from="-1308725837" to="1308725837" fromLane="0" toLane="0"/>

    <connection from="-1308727294" to="1308727294" fromLane="0" toLane="0"/>

    <connection from="-1309184314" to="957918305#2" fromLane="0" toLane="0"/>
    <connection from="-1309184314" to="-957918305#1" fromLane="0" toLane="0"/>
    <connection from="-1309184314" to="1309184314" fromLane="0" toLane="0"/>

    <connection from="-1309184315" to="23314618#3" fromLane="0" toLane="0"/>
    <connection from="-1309184315" to="-23314618#2" fromLane="0" toLane="0"/>
    <connection from="-1309184315" to="1309184315" fromLane="0" toLane="0"/>

    <connection from="-1309184316#0" to="-23314618#6" fromLane="0" toLane="0"/>
    <connection from="-1309184316#0" to="23314618#7" fromLane="0" toLane="0"/>
    <connection from="-1309184316#0" to="1309184316#0" fromLane="0" toLane="0"/>

    <connection from="-1309184316#1" to="-1309184316#0" fromLane="0" toLane="0"/>
    <connection from="-1309184316#1" to="1376640420" fromLane="0" toLane="0"/>
    <connection from="-1309184316#1" to="1309184316#1" fromLane="0" toLane="0"/>

    <connection from="-1309184316#2" to="-1309184316#1" fromLane="0" toLane="0"/>
    <connection from="-1309184316#2" to="1309184317#0" fromLane="0" toLane="0"/>
    <connection from="-1309184316#2" to="1309184316#2" fromLane="0" toLane="0"/>

    <connection from="-1309184317#0" to="1309184316#2" fromLane="0" toLane="0"/>
    <connection from="-1309184317#0" to="-1309184316#1" fromLane="0" toLane="0"/>
    <connection from="-1309184317#0" to="1309184317#0" fromLane="0" toLane="0"/>

    <connection from="-1309184317#1" to="-1309184317#0" fromLane="0" toLane="0"/>
    <connection from="-1309184317#1" to="1309184318#0" fromLane="0" toLane="0"/>
    <connection from="-1309184317#1" to="1309184317#1" fromLane="0" toLane="0"/>

    <connection from="-1309184318#0" to="1309184317#1" fromLane="0" toLane="0"/>
    <connection from="-1309184318#0" to="-1309184317#0" fromLane="0" toLane="0"/>
    <connection from="-1309184318#0" to="1309184318#0" fromLane="0" toLane="0"/>

    <connection from="-1309184318#1" to="1376640416" fromLane="0" toLane="0"/>
    <connection from="-1309184318#1" to="-1309184318#0" fromLane="0" toLane="0"/>
    <connection from="-1309184318#1" to="1309184318#1" fromLane="0" toLane="0"/>

    <connection from="-1309184318#2" to="1309184319#0" fromLane="0" toLane="0"/>
    <connection from="-1309184318#2" to="-1309184318#1" fromLane="0" toLane="0"/>
    <connection from="-1309184318#2" to="1309184318#2" fromLane="0" toLane="0"/>

    <connection from="-1309184318#3" to="-1309184318#2" fromLane="0" toLane="0"/>
    <connection from="-1309184318#3" to="-1376640420" fromLane="0" toLane="0"/>
    <connection from="-1309184318#3" to="1309184318#3" fromLane="0" toLane="0"/>

    <connection from="-1309184319#0" to="-1309184318#1" fromLane="0" toLane="0"/>
    <connection from="-1309184319#0" to="1309184318#2" fromLane="0" toLane="0"/>
    <connection from="-1309184319#0" to="1309184319#0" fromLane="0" toLane="0"/>

    <connection from="-1309184319#1" to="1309184322" fromLane="0" toLane="0"/>
    <connection from="-1309184319#1" to="-1309184319#0" fromLane="0" toLane="0"/>
    <connection from="-1309184319#1" to="1309184319#1" fromLane="0" toLane="0"/>

    <connection from="-1309184319#2" to="1309184321" fromLane="0" toLane="0"/>
    <connection from="-1309184319#2" to="-1309184319#1" fromLane="0" toLane="0"/>
    <connection from="-1309184319#2" to="1309184319#2" fromLane="0" toLane="0"/>

    <connection from="-1309184319#3" to="1309184320" fromLane="0" toLane="0"/>
    <connection from="-1309184319#3" to="-1309184319#2" fromLane="0" toLane="0"/>
    <connection from="-1309184319#3" to="1309184319#3" fromLane="0" toLane="0"/>

    <connection from="-1309184320" to="-1309184319#2" fromLane="0" toLane="0"/>
    <connection from="-1309184320" to="1309184319#3" fromLane="0" toLane="0"/>
    <connection from="-1309184320" to="1309184320" fromLane="0" toLane="0"/>

    <connection from="-1309184321" to="-1309184319#1" fromLane="0" toLane="0"/>
    <connection from="-1309184321" to="1309184319#2" fromLane="0" toLane="0"/>
    <connection from="-1309184321" to="1309184321" fromLane="0" toLane="0"/>

    <connection from="-1309184322" to="-1309184319#0" fromLane="0" toLane="0"/>
    <connection from="-1309184322" to="1309184319#1" fromLane="0" toLane="0"/>
    <connection from="-1309184322" to="1309184322" fromLane="0" toLane="0"/>

    <connection from="-1309184323#0" to="-1376640417" fromLane="0" toLane="0"/>

    <connection from="-1309184323#1" to="1309184324#0" fromLane="0" toLane="0"/>
    <connection from="-1309184323#1" to="-1309184323#0" fromLane="0" toLane="0"/>
    <connection from="-1309184323#1" to="1309184323#1" fromLane="0" toLane="0"/>

    <connection from="-1309184323#2" to="957914106" fromLane="0" toLane="0"/>
    <connection from="-1309184323#2" to="-1309184323#1" fromLane="0" toLane="0"/>
    <connection from="-1309184323#2" to="1309184323#2" fromLane="0" toLane="0"/>

    <connection from="-1309184324#0" to="-1309184323#0" fromLane="0" toLane="0"/>
    <connection from="-1309184324#0" to="1309184323#1" fromLane="0" toLane="0"/>
    <connection from="-1309184324#0" to="1309184324#0" fromLane="0" toLane="0"/>

    <connection from="-1309184324#1" to="-1309184324#0" fromLane="0" toLane="0"/>
    <connection from="-1309184324#1" to="1309184325" fromLane="0" toLane="0"/>
    <connection from="-1309184324#1" to="1309184324#1" fromLane="0" toLane="0"/>

    <connection from="-1309184325" to="1309184324#1" fromLane="0" toLane="0"/>
    <connection from="-1309184325" to="-1309184324#0" fromLane="0" toLane="0"/>
    <connection from="-1309184325" to="1309184325" fromLane="0" toLane="0"/>

    <connection from="-1309184326" to="957060428#1" fromLane="0" toLane="0"/>
    <connection from="-1309184326" to="-957060428#0" fromLane="0" toLane="0"/>
    <connection from="-1309184326" to="1309184326" fromLane="0" toLane="0"/>

    <connection from="-1309184327" to="-846228371#1" fromLane="0" toLane="0"/>
    <connection from="-1309184327" to="846228371#2" fromLane="0" toLane="0"/>
    <connection from="-1309184327" to="1309184327" fromLane="0" toLane="0"/>

    <connection from="-1309184328" to="450700266#2" fromLane="0" toLane="0"/>
    <connection from="-1309184328" to="-450700266#1" fromLane="0" toLane="0"/>
    <connection from="-1309184328" to="1309184328" fromLane="0" toLane="0"/>

    <connection from="-1309184329" to="835923222#3" fromLane="0" toLane="0"/>
    <connection from="-1309184329" to="-835923222#2" fromLane="0" toLane="0"/>
    <connection from="-1309184329" to="1309184329" fromLane="0" toLane="0"/>

    <connection from="-1309184331" to="-887055669#1" fromLane="0" toLane="0"/>
    <connection from="-1309184331" to="887055669#2" fromLane="0" toLane="0"/>
    <connection from="-1309184331" to="1309184331" fromLane="0" toLane="0"/>

    <connection from="-1309184332" to="887055666#3" fromLane="0" toLane="0"/>
    <connection from="-1309184332" to="-887055666#2" fromLane="0" toLane="0"/>
    <connection from="-1309184332" to="1309184332" fromLane="0" toLane="0"/>

    <connection from="-1309184333" to="-539178239#6" fromLane="0" toLane="0"/>

    <connection from="-1309184334" to="888474711#1" fromLane="0" toLane="0"/>
    <connection from="-1309184334" to="-888474711#0" fromLane="0" toLane="0"/>
    <connection from="-1309184334" to="1309184334" fromLane="0" toLane="0"/>

    <connection from="-1309198922" to="-31857931#3" fromLane="0" toLane="0"/>
    <connection from="-1309198922" to="31857931#4" fromLane="0" toLane="0"/>
    <connection from="-1309198922" to="1309198922" fromLane="0" toLane="0"/>

    <connection from="-1309221436" to="888474711#2" fromLane="0" toLane="0"/>
    <connection from="-1309221436" to="-888474711#1" fromLane="0" toLane="0"/>
    <connection from="-1309221436" to="1309221436" fromLane="0" toLane="0"/>

    <connection from="-1309221437" to="-1309221438" fromLane="0" toLane="0"/>

    <connection from="-1309221438" to="-1309221439" fromLane="0" toLane="0"/>

    <connection from="-1309221439" to="-1306480972#0" fromLane="0" toLane="0"/>
    <connection from="-1309221439" to="1306480972#1" fromLane="0" toLane="0"/>
    <connection from="-1309221439" to="1309221439" fromLane="0" toLane="0"/>

    <connection from="-1309221440" to="1372011600#4" fromLane="0" toLane="0"/>
    <connection from="-1309221440" to="-1372011600#3" fromLane="0" toLane="0"/>
    <connection from="-1309221440" to="1309221440" fromLane="0" toLane="0"/>

    <connection from="-1309221441" to="-1372011600#2" fromLane="0" toLane="0"/>
    <connection from="-1309221441" to="1372011600#3" fromLane="0" toLane="0"/>
    <connection from="-1309221441" to="1309221441" fromLane="0" toLane="0"/>

    <connection from="-1309221442" to="1306480967#1" fromLane="0" toLane="0"/>
    <connection from="-1309221442" to="-1306480967#0" fromLane="0" toLane="0"/>
    <connection from="-1309221442" to="1309221442" fromLane="0" toLane="0"/>

    <connection from="-1309989505#0" to="-801345978#1" fromLane="0" toLane="0"/>
    <connection from="-1309989505#0" to="801345978#2" fromLane="0" toLane="0"/>
    <connection from="-1309989505#0" to="1309989505#0" fromLane="0" toLane="0"/>

    <connection from="-1309989505#1" to="-1309989505#2" fromLane="0" toLane="0"/>
    <connection from="-1309989505#1" to="-1309989505#0" fromLane="0" toLane="0"/>
    <connection from="-1309989505#1" to="1309989505#1" fromLane="0" toLane="0"/>

    <connection from="-1309989505#2" to="-1309989505#1" fromLane="0" toLane="0"/>

    <connection from="-1309989506" to="-531663745#0" fromLane="0" toLane="0"/>
    <connection from="-1309989506" to="531663745#1" fromLane="0" toLane="0"/>
    <connection from="-1309989506" to="1309989506" fromLane="0" toLane="0"/>

    <connection from="-1309989507#0" to="1309989507#0" fromLane="0" toLane="0"/>

    <connection from="-1309989507#1" to="-1309989509" fromLane="0" toLane="0"/>
    <connection from="-1309989507#1" to="-1309989507#0" fromLane="0" toLane="0"/>
    <connection from="-1309989507#1" to="1309989507#1" fromLane="0" toLane="0"/>

    <connection from="-1309989508" to="-1309989510" fromLane="0" toLane="0"/>

    <connection from="-1309989509" to="-1309989508" fromLane="0" toLane="0"/>

    <connection from="-1309989510" to="-888474717#2" fromLane="0" toLane="0"/>
    <connection from="-1309989510" to="888474717#3" fromLane="0" toLane="0"/>
    <connection from="-1309989510" to="1309989510" fromLane="0" toLane="0"/>

    <connection from="-1309989511#0" to="-1308725828#0" fromLane="0" toLane="0"/>
    <connection from="-1309989511#0" to="-1309989507#1" fromLane="0" toLane="0"/>
    <connection from="-1309989511#0" to="1308725828#1" fromLane="0" toLane="0"/>
    <connection from="-1309989511#0" to="1309989511#0" fromLane="0" toLane="0"/>

    <connection from="-1309989511#1" to="-1309989513" fromLane="0" toLane="0"/>
    <connection from="-1309989511#1" to="-1309989511#0" fromLane="0" toLane="0"/>
    <connection from="-1309989511#1" to="1309989511#1" fromLane="0" toLane="0"/>

    <connection from="-1309989512" to="-1309989514" fromLane="0" toLane="0"/>

    <connection from="-1309989513" to="-1309989512" fromLane="0" toLane="0"/>

    <connection from="-1309989514" to="-888474717#0" fromLane="0" toLane="0"/>
    <connection from="-1309989514" to="888474717#1" fromLane="0" toLane="0"/>
    <connection from="-1309989514" to="1309989514" fromLane="0" toLane="0"/>

    <connection from="-1320330288" to="450700266#4" fromLane="0" toLane="0"/>
    <connection from="-1320330288" to="-450700266#3" fromLane="0" toLane="0"/>
    <connection from="-1320330288" to="1320330288" fromLane="0" toLane="0"/>

    <connection from="-1320330289" to="450700269" fromLane="0" toLane="0"/>
    <connection from="-1320330289" to="450700266#0" fromLane="0" toLane="0"/>
    <connection from="-1320330289" to="1320330289" fromLane="0" toLane="0"/>

    <connection from="-1372009227" to="-1306480975" fromLane="0" toLane="0"/>
    <connection from="-1372009227" to="-1376441514" fromLane="0" toLane="0"/>
    <connection from="-1372009227" to="1372009227" fromLane="0" toLane="0"/>

    <connection from="-1372009228" to="-1372009227" fromLane="0" toLane="0"/>

    <connection from="-1372011600#0" to="-548373984#7" fromLane="0" toLane="0"/>
    <connection from="-1372011600#0" to="597693449#0" fromLane="0" toLane="0"/>
    <connection from="-1372011600#0" to="1372011600#0" fromLane="0" toLane="0"/>

    <connection from="-1372011600#1" to="887054166#0" fromLane="0" toLane="0"/>
    <connection from="-1372011600#1" to="-1372011600#0" fromLane="0" toLane="0"/>
    <connection from="-1372011600#1" to="1372011600#1" fromLane="0" toLane="0"/>

    <connection from="-1372011600#2" to="-1372011600#1" fromLane="0" toLane="0"/>
    <connection from="-1372011600#2" to="-1306480972#3" fromLane="0" toLane="0"/>
    <connection from="-1372011600#2" to="1372011600#2" fromLane="0" toLane="0"/>

    <connection from="-1372011600#3" to="1309221441" fromLane="0" toLane="0"/>
    <connection from="-1372011600#3" to="-1372011600#2" fromLane="0" toLane="0"/>
    <connection from="-1372011600#3" to="1372011600#3" fromLane="0" toLane="0"/>

    <connection from="-1372011600#4" to="-1372011600#3" fromLane="0" toLane="0"/>
    <connection from="-1372011600#4" to="1309221440" fromLane="0" toLane="0"/>
    <connection from="-1372011600#4" to="1372011600#4" fromLane="0" toLane="0"/>

    <connection from="-1372011600#5" to="-1306480966#2" fromLane="0" toLane="0"/>
    <connection from="-1372011600#5" to="-1372011600#4" fromLane="0" toLane="0"/>
    <connection from="-1372011600#5" to="1372011600#5" fromLane="0" toLane="0"/>

    <connection from="-1372011600#6" to="-1306480968" fromLane="0" toLane="0"/>
    <connection from="-1372011600#6" to="-1372011600#5" fromLane="0" toLane="0"/>
    <connection from="-1372011600#6" to="1372011600#6" fromLane="0" toLane="0"/>

    <connection from="-1372011600#7" to="1306480967#0" fromLane="0" toLane="0"/>
    <connection from="-1372011600#7" to="-1372011600#6" fromLane="0" toLane="0"/>
    <connection from="-1372011600#7" to="1372011600#7" fromLane="0" toLane="0"/>

    <connection from="-1372246172" to="-27808248#9" fromLane="0" toLane="0"/>
    <connection from="-1372246172" to="27808248#10" fromLane="0" toLane="0"/>
    <connection from="-1372246172" to="1372246172" fromLane="0" toLane="0"/>

    <connection from="-1376428292" to="1376428294#1" fromLane="0" toLane="0"/>
    <connection from="-1376428292" to="-1376428294#0" fromLane="0" toLane="0"/>
    <connection from="-1376428292" to="1376428292" fromLane="0" toLane="0"/>

    <connection from="-1376428293" to="-801833814#0" fromLane="0" toLane="0"/>
    <connection from="-1376428293" to="801833814#1" fromLane="0" toLane="0"/>
    <connection from="-1376428293" to="1376428293" fromLane="0" toLane="0"/>

    <connection from="-1376428294#0" to="817981377#12" fromLane="0" toLane="0"/>
    <connection from="-1376428294#0" to="-817981377#11" fromLane="0" toLane="0"/>
    <connection from="-1376428294#0" to="1376428294#0" fromLane="0" toLane="0"/>

    <connection from="-1376428294#1" to="-1376428294#0" fromLane="0" toLane="0"/>
    <connection from="-1376428294#1" to="1376428292" fromLane="0" toLane="0"/>
    <connection from="-1376428294#1" to="1376428294#1" fromLane="0" toLane="0"/>

    <connection from="-1376428294#2" to="801833814#0" fromLane="0" toLane="0"/>
    <connection from="-1376428294#2" to="-1376428294#1" fromLane="0" toLane="0"/>
    <connection from="-1376428294#2" to="1376428294#2" fromLane="0" toLane="0"/>

    <connection from="-1376428295" to="1376428295" fromLane="0" toLane="0"/>

    <connection from="-1376428296" to="1376428296" fromLane="0" toLane="0"/>

    <connection from="-1376428297" to="1376428297" fromLane="0" toLane="0"/>

    <connection from="-1376428298" to="-1376428297" fromLane="0" toLane="0"/>

    <connection from="-1376428299" to="-1376428300" fromLane="0" toLane="0"/>

    <connection from="-1376428300" to="-1309184324#1" fromLane="0" toLane="0"/>

    <connection from="-1376441507" to="-1376441508" fromLane="0" toLane="0"/>

    <connection from="-1376441508" to="-763020936" fromLane="0" toLane="0"/>

    <connection from="-1376441509" to="-1376441510" fromLane="0" toLane="0"/>

    <connection from="-1376441510" to="-1309221442" fromLane="0" toLane="0"/>

    <connection from="-1376441511" to="1376441511" fromLane="0" toLane="0"/>

    <connection from="-1376441512" to="859009059#3" fromLane="0" toLane="0"/>
    <connection from="-1376441512" to="-859009059#2" fromLane="0" toLane="0"/>
    <connection from="-1376441512" to="1376441512" fromLane="0" toLane="0"/>
