<routes>
    <vType id="car" accel="2.6" decel="4.5" sigma="0.5" length="5" maxSpeed="50"/>
    <trip id="veh0" type="car" depart="0.0" from="1372011600#1" to="-1309184324#1"/>
    <trip id="veh1" type="car" depart="0.5" from="797906748#0" to="1309184314"/>
    <trip id="veh2" type="car" depart="1.0" from="-846228371#2" to="-44634825#9"/>
    <trip id="veh3" type="car" depart="1.5" from="801345977#2" to="-539202878"/>
    <trip id="veh4" type="car" depart="2.0" from="957060887" to="-817981377#3"/>
    <trip id="veh5" type="car" depart="2.5" from="-31857931#4" to="-888474709"/>
    <trip id="veh6" type="car" depart="3.0" from="539178239#5" to="-846228371#0"/>
    <trip id="veh7" type="car" depart="3.5" from="817981377#14" to="-817981377#7"/>
    <trip id="veh8" type="car" depart="4.0" from="888696116#2" to="-958131016"/>
    <trip id="veh9" type="car" depart="4.5" from="1306480965#1" to="-801345981"/>
    <trip id="veh10" type="car" depart="5.0" from="888474717#1" to="549646943#1"/>
    <trip id="veh11" type="car" depart="5.5" from="958130095" to="-763020805#1"/>
    <trip id="veh12" type="car" depart="6.0" from="-842128447#1" to="-1252047658#1"/>
    <trip id="veh13" type="car" depart="6.5" from="539179122#4" to="-958340133"/>
    <trip id="veh14" type="car" depart="7.0" from="763019962#1" to="-1308725824#0"/>
    <trip id="veh15" type="car" depart="7.5" from="-817981377#5" to="887055668"/>
    <trip id="veh16" type="car" depart="8.0" from="-846228371#0" to="1376428300"/>
    <trip id="veh17" type="car" depart="8.5" from="539178239#1" to="1309989512"/>
    <trip id="veh18" type="car" depart="9.0" from="887055667" to="817981377#7"/>
    <trip id="veh19" type="car" depart="9.5" from="955974434" to="-1376428298"/>
    <trip id="veh20" type="car" depart="10.0" from="-801834632" to="-450700266#5"/>
    <trip id="veh21" type="car" depart="10.5" from="-1309184316#1" to="-817981377#5"/>
    <trip id="veh22" type="car" depart="11.0" from="1263672512#2" to="-1306480978"/>
    <trip id="veh23" type="car" depart="11.5" from="747493602#0" to="1372011600#1"/>
    <trip id="veh24" type="car" depart="12.0" from="-801345980" to="1308725828#0"/>
    <trip id="veh25" type="car" depart="12.5" from="31857931#10" to="-957914106"/>
    <trip id="veh26" type="car" depart="13.0" from="-1309221437" to="-848727039#5"/>
    <trip id="veh27" type="car" depart="13.5" from="-539178239#0" to="817981377#10"/>
    <trip id="veh28" type="car" depart="14.0" from="-955972049" to="848727039#5"/>
    <trip id="veh29" type="car" depart="14.5" from="-797906748#1" to="-1306480980"/>
    <trip id="veh30" type="car" depart="15.0" from="-23314618#3" to="-1372011600#0"/>
    <trip id="veh31" type="car" depart="15.5" from="-817981377#14" to="44634825#11"/>
    <trip id="veh32" type="car" depart="16.0" from="27814526#5" to="1376441511"/>
    <trip id="veh33" type="car" depart="16.5" from="955974434" to="-1309221442"/>
    <trip id="veh34" type="car" depart="17.0" from="-846728951#2" to="-549646943#0"/>
    <trip id="veh35" type="car" depart="17.5" from="531663745#2" to="-1263672512#3"/>
    <trip id="veh36" type="car" depart="18.0" from="-852882801#2" to="-539178239#5"/>
    <trip id="veh37" type="car" depart="18.5" from="1309184315" to="-44634825#8"/>
    <trip id="veh38" type="car" depart="19.0" from="-1308725824#0" to="-801709802#3"/>
    <trip id="veh39" type="car" depart="19.5" from="548373984#5" to="-1376640427#0"/>
    <trip id="veh40" type="car" depart="20.0" from="763018290" to="1320330289"/>
    <trip id="veh41" type="car" depart="20.5" from="801709800#1" to="-888696112#1"/>
    <trip id="veh42" type="car" depart="21.0" from="-1306480977" to="-820874825#3"/>
    <trip id="veh43" type="car" depart="21.5" from="-801709799#0" to="763020805#2"/>
    <trip id="veh44" type="car" depart="22.0" from="-1263672512#0" to="602111419"/>
    <trip id="veh45" type="car" depart="22.5" from="-753822886#3" to="-753822243#1"/>
    <trip id="veh46" type="car" depart="23.0" from="-539178239#1" to="-188412271#1"/>
    <trip id="veh47" type="car" depart="23.5" from="539179122#0" to="1306480966#0"/>
    <trip id="veh48" type="car" depart="24.0" from="-955972047" to="-1306480982"/>
    <trip id="veh49" type="car" depart="24.5" from="1376642499" to="1309184319#3"/>
    <trip id="veh50" type="car" depart="25.0" from="-1376441511" to="1376446261"/>
    <trip id="veh51" type="car" depart="25.5" from="-801709799#1" to="-817981377#13"/>
    <trip id="veh52" type="car" depart="26.0" from="888696114" to="23314618#4"/>
    <trip id="veh53" type="car" depart="26.5" from="819032442" to="801345978#3"/>
    <trip id="veh54" type="car" depart="27.0" from="-44634825#12" to="-1306480982"/>
    <trip id="veh55" type="car" depart="27.5" from="888474710" to="-1376428293"/>
    <trip id="veh56" type="car" depart="28.0" from="-597693449#3" to="-597693449#1"/>
    <trip id="veh57" type="car" depart="28.5" from="801850531" to="1306480972#2"/>
    <trip id="veh58" type="car" depart="29.0" from="747493592#1" to="-849424259#1"/>
    <trip id="veh59" type="car" depart="29.5" from="-801834554#2" to="-888474713"/>
    <trip id="veh60" type="car" depart="30.0" from="-887055666#2" to="-31857931#10"/>
    <trip id="veh61" type="car" depart="30.5" from="1306480974" to="800789133#1"/>
    <trip id="veh62" type="car" depart="31.0" from="-23314618#5" to="1306480966#2"/>
    <trip id="veh63" type="car" depart="31.5" from="-902574751#1" to="-1309221439"/>
    <trip id="veh64" type="car" depart="32.0" from="-1376428294#0" to="-450700266#4"/>
    <trip id="veh65" type="car" depart="32.5" from="-1308725833" to="1309989505#2"/>
    <trip id="veh66" type="car" depart="33.0" from="-887055666#1" to="-817981377#9"/>
    <trip id="veh67" type="car" depart="33.5" from="1309221441" to="1309989505#0"/>
    <trip id="veh68" type="car" depart="34.0" from="-817621039" to="-1376642499"/>
    <trip id="veh69" type="car" depart="34.5" from="887055669#1" to="1306480972#2"/>
    <trip id="veh70" type="car" depart="35.0" from="-800789143" to="1376428296"/>
    <trip id="veh71" type="car" depart="35.5" from="800789139#1" to="800789138#0"/>
    <trip id="veh72" type="car" depart="36.0" from="955972050" to="-1376441513"/>
    <trip id="veh73" type="car" depart="36.5" from="-852882801#1" to="-23314618#2"/>
    <trip id="veh74" type="car" depart="37.0" from="-848727039#7" to="-31547645#1"/>
    <trip id="veh75" type="car" depart="37.5" from="800789138#0" to="-1376428294#2"/>
    <trip id="veh76" type="car" depart="38.0" from="801834632" to="957057618"/>
    <trip id="veh77" type="car" depart="38.5" from="-955972049" to="956221760"/>
    <trip id="veh78" type="car" depart="39.0" from="345394631#3" to="817620016"/>
    <trip id="veh79" type="car" depart="39.5" from="956221994" to="958758865"/>
    <trip id="veh80" type="car" depart="40.0" from="44634825#12" to="-801709800#0"/>
    <trip id="veh81" type="car" depart="40.5" from="-345394632" to="1309184318#1"/>
    <trip id="veh82" type="car" depart="41.0" from="1306480965#1" to="-817981377#12"/>
    <trip id="veh83" type="car" depart="41.5" from="905715082#3" to="251819185#8"/>
    <trip id="veh84" type="car" depart="42.0" from="-888696116#0" to="-1252047658#2"/>
    <trip id="veh85" type="car" depart="42.5" from="957060887" to="-1306480973"/>
    <trip id="veh86" type="car" depart="43.0" from="-549646943#2" to="23314618#2"/>
    <trip id="veh87" type="car" depart="43.5" from="1372011600#1" to="888474711#1"/>
    <trip id="veh88" type="car" depart="44.0" from="-801850531" to="-958131188"/>
    <trip id="veh89" type="car" depart="44.5" from="753822886#0" to="1306480981"/>
    <trip id="veh90" type="car" depart="45.0" from="698537399#0" to="888474711#0"/>
    <trip id="veh91" type="car" depart="45.5" from="800789143" to="31857931#2"/>
    <trip id="veh92" type="car" depart="46.0" from="817620011" to="1376446263"/>
    <trip id="veh93" type="car" depart="46.5" from="-817620016" to="-1376428297"/>
    <trip id="veh94" type="car" depart="47.0" from="-887055669#1" to="817981377#9"/>
    <trip id="veh95" type="car" depart="47.5" from="-800789143" to="888696112#1"/>
    <trip id="veh96" type="car" depart="48.0" from="848727039#14" to="-835923222#2"/>
    <trip id="veh97" type="car" depart="48.5" from="-800789138#1" to="846228371#1"/>
    <trip id="veh98" type="car" depart="49.0" from="957873329" to="539178050#1"/>
    <trip id="veh99" type="car" depart="49.5" from="-857437897" to="1376446260"/>
    <trip id="veh100" type="car" depart="50.0" from="-817981377#15" to="-1309989510"/>
    <trip id="veh101" type="car" depart="50.5" from="-957057618" to="-549646943#1"/>
    <trip id="veh102" type="car" depart="51.0" from="345394631#2" to="-801850531"/>
    <trip id="veh103" type="car" depart="51.5" from="-889997419" to="-801709802#2"/>
    <trip id="veh104" type="car" depart="52.0" from="-44634825#6" to="-1372011600#4"/>
    <trip id="veh105" type="car" depart="52.5" from="-798629517" to="-1308727294"/>
    <trip id="veh106" type="car" depart="53.0" from="-1263672512#0" to="-597693449#3"/>
    <trip id="veh107" type="car" depart="53.5" from="-753822243#1" to="-27808248#8"/>
    <trip id="veh108" type="car" depart="54.0" from="251819185#7" to="-801709802#0"/>
    <trip id="veh109" type="car" depart="54.5" from="1309198922" to="1309989511#0"/>
    <trip id="veh110" type="car" depart="55.0" from="-852882801#1" to="1309184316#1"/>
    <trip id="veh111" type="car" depart="55.5" from="1309184317#0" to="-846729108"/>
    <trip id="veh112" type="car" depart="56.0" from="-1306480982" to="-1308725827"/>
    <trip id="veh113" type="car" depart="56.5" from="531663745#1" to="753822243#1"/>
    <trip id="veh114" type="car" depart="57.0" from="-887054166#3" to="44634825#0"/>
    <trip id="veh115" type="car" depart="57.5" from="-955974598" to="-747493592#2"/>
    <trip id="veh116" type="car" depart="58.0" from="800789134#0" to="-1320330288"/>
    <trip id="veh117" type="car" depart="58.5" from="957052483" to="1309184327"/>
    <trip id="veh118" type="car" depart="59.0" from="902574751#1" to="-955974434"/>
    <trip id="veh119" type="car" depart="59.5" from="-1376441514" to="800789136#1"/>
    <trip id="veh120" type="car" depart="60.0" from="956054768" to="820874824"/>
    <trip id="veh121" type="car" depart="60.5" from="-31547645#1" to="-1234538085"/>
    <trip id="veh122" type="car" depart="61.0" from="817981377#11" to="-902574751#0"/>
    <trip id="veh123" type="car" depart="61.5" from="450700266#6" to="-251819185#13"/>
    <trip id="veh124" type="car" depart="62.0" from="1306480984" to="-859009059#1"/>
    <trip id="veh125" type="car" depart="62.5" from="800789136#1" to="-848727039#2"/>
    <trip id="veh126" type="car" depart="63.0" from="539178239#5" to="888474711#2"/>
    <trip id="veh127" type="car" depart="63.5" from="-345394631#0" to="-956061343"/>
    <trip id="veh128" type="car" depart="64.0" from="817981377#6" to="-887054166#0"/>
    <trip id="veh129" type="car" depart="64.5" from="-857437897" to="-1376446261"/>
    <trip id="veh130" type="car" depart="65.0" from="-548373984#5" to="-800789141#0"/>
    <trip id="veh131" type="car" depart="65.5" from="-1376441509" to="-801345980"/>
    <trip id="veh132" type="car" depart="66.0" from="801834554#2" to="859009059#3"/>
    <trip id="veh133" type="car" depart="66.5" from="820874825#2" to="1306480980"/>
    <trip id="veh134" type="car" depart="67.0" from="-801345977#2" to="1376428298"/>
    <trip id="veh135" type="car" depart="67.5" from="-1372246172" to="956221994"/>
    <trip id="veh136" type="car" depart="68.0" from="-1376640427#1" to="1376428297"/>
    <trip id="veh137" type="car" depart="68.5" from="1308725826" to="763020805#0"/>
    <trip id="veh138" type="car" depart="69.0" from="-747493590#0" to="-957060428#1"/>
    <trip id="veh139" type="car" depart="69.5" from="-887055666#1" to="-1306480968"/>
    <trip id="veh140" type="car" depart="70.0" from="44634825#11" to="27814526#3"/>
    <trip id="veh141" type="car" depart="70.5" from="-1308725823" to="-817981377#7"/>
    <trip id="veh142" type="car" depart="71.0" from="1263672512#0" to="-801834632"/>
    <trip id="veh143" type="car" depart="71.5" from="-888474709" to="-1372009228"/>
    <trip id="veh144" type="car" depart="72.0" from="1309184325" to="817981377#6"/>
    <trip id="veh145" type="car" depart="72.5" from="801345977#0" to="957863792"/>
    <trip id="veh146" type="car" depart="73.0" from="887055669#1" to="-251819185#13"/>
    <trip id="veh147" type="car" depart="73.5" from="-747493593#0" to="846728951#1"/>
    <trip id="veh148" type="car" depart="74.0" from="1309989513" to="-800789137"/>
    <trip id="veh149" type="car" depart="74.5" from="-905715082#1" to="-801834554#2"/>
    <trip id="veh150" type="car" depart="75.0" from="44634825#8" to="-888696116#1"/>
    <trip id="veh151" type="car" depart="75.5" from="1308727294" to="846728951#0"/>
    <trip id="veh152" type="car" depart="76.0" from="887054166#2" to="763021529#0"/>
    <trip id="veh153" type="car" depart="76.5" from="753822886#0" to="597693449#2"/>
    <trip id="veh154" type="car" depart="77.0" from="-548373984#3" to="958131016"/>
    <trip id="veh155" type="car" depart="77.5" from="887054166#0" to="-450700266#4"/>
    <trip id="veh156" type="car" depart="78.0" from="-1306480977" to="-956061343"/>
    <trip id="veh157" type="car" depart="78.5" from="-44634825#12" to="958578559"/>
    <trip id="veh158" type="car" depart="79.0" from="-1309989511#0" to="1309221437"/>
    <trip id="veh159" type="car" depart="79.5" from="957053245#1" to="345394631#2"/>
    <trip id="veh160" type="car" depart="80.0" from="905715082#0" to="-819032413#0"/>
    <trip id="veh161" type="car" depart="80.5" from="251819185#6" to="-539178239#5"/>
    <trip id="veh162" type="car" depart="81.0" from="1263672512#1" to="1306480965#1"/>
    <trip id="veh163" type="car" depart="81.5" from="-1263672512#0" to="955973497"/>
    <trip id="veh164" type="car" depart="82.0" from="747493593#0" to="842128447#2"/>
    <trip id="veh165" type="car" depart="82.5" from="1234538085" to="-886443060"/>
    <trip id="veh166" type="car" depart="83.0" from="-1309989511#1" to="-1376441509"/>
    <trip id="veh167" type="car" depart="83.5" from="1309184331" to="848727039#1"/>
    <trip id="veh168" type="car" depart="84.0" from="345394631#3" to="-1309184328"/>
    <trip id="veh169" type="car" depart="84.5" from="-1306480970" to="-763018290"/>
    <trip id="veh170" type="car" depart="85.0" from="-801709799#2" to="-1308725828#0"/>
    <trip id="veh171" type="car" depart="85.5" from="539179122#8" to="-1306480978"/>
    <trip id="veh172" type="car" depart="86.0" from="848727039#9" to="-888696116#2"/>
    <trip id="veh173" type="car" depart="86.5" from="800789133#0" to="1309221441"/>
    <trip id="veh174" type="car" depart="87.0" from="-889997418#1" to="450700266#5"/>
    <trip id="veh175" type="car" depart="87.5" from="-849652290#1" to="817621039"/>
    <trip id="veh176" type="car" depart="88.0" from="251819185#12" to="846729108"/>
    <trip id="veh177" type="car" depart="88.5" from="251819185#0" to="-801345978#0"/>
    <trip id="veh178" type="car" depart="89.0" from="1309184327" to="1308725833"/>
    <trip id="veh179" type="car" depart="89.5" from="-887055666#3" to="1306480982"/>
    <trip id="veh180" type="car" depart="90.0" from="-835923222#0" to="251819185#7"/>
    <trip id="veh181" type="car" depart="90.5" from="-1372009228" to="842128447#0"/>
    <trip id="veh182" type="car" depart="91.0" from="251819185#8" to="1306480967#1"/>
    <trip id="veh183" type="car" depart="91.5" from="-450700266#5" to="-1376441513"/>
    <trip id="veh184" type="car" depart="92.0" from="-984695380" to="957863792"/>
    <trip id="veh185" type="car" depart="92.5" from="-1309184323#1" to="597693449#3"/>
    <trip id="veh186" type="car" depart="93.0" from="-1376428294#1" to="-955974598"/>
    <trip id="veh187" type="car" depart="93.5" from="-957053245#1" to="-747493590#1"/>
    <trip id="veh188" type="car" depart="94.0" from="1308725824#1" to="958131016"/>
    <trip id="veh189" type="car" depart="94.5" from="-597693449#2" to="-800789136#1"/>
    <trip id="veh190" type="car" depart="95.0" from="-1376428295" to="1306480970"/>
    <trip id="veh191" type="car" depart="95.5" from="801345976#1" to="-888474709"/>
    <trip id="veh192" type="car" depart="96.0" from="957059243" to="-887054166#2"/>
    <trip id="veh193" type="car" depart="96.5" from="819032413#1" to="1376428298"/>
    <trip id="veh194" type="car" depart="97.0" from="-801709802#2" to="539178239#6"/>
    <trip id="veh195" type="car" depart="97.5" from="797906748#1" to="-887055669#2"/>
    <trip id="veh196" type="car" depart="98.0" from="698537399#1" to="820874825#2"/>
    <trip id="veh197" type="car" depart="98.5" from="1309184324#1" to="-1309184332"/>
    <trip id="veh198" type="car" depart="99.0" from="1306480965#0" to="1309221437"/>
    <trip id="veh199" type="car" depart="99.5" from="800789139#1" to="-801709799#4"/>
    <trip id="veh200" type="car" depart="100.0" from="-251819185#13" to="801709802#2"/>
    <trip id="veh201" type="car" depart="100.5" from="-888696112#0" to="-958337520"/>
    <trip id="veh202" type="car" depart="101.0" from="-801709799#4" to="-539178239#2"/>
    <trip id="veh203" type="car" depart="101.5" from="891165121#0" to="958758864"/>
    <trip id="veh204" type="car" depart="102.0" from="888696112#1" to="-852882801#4"/>
    <trip id="veh205" type="car" depart="102.5" from="-188412271#0" to="-1306480982"/>
    <trip id="veh206" type="car" depart="103.0" from="888696112#0" to="-1376441511"/>
    <trip id="veh207" type="car" depart="103.5" from="-817981377#5" to="539178168#1"/>
    <trip id="veh208" type="car" depart="104.0" from="801709800#1" to="763020805#0"/>
    <trip id="veh209" type="car" depart="104.5" from="817148273" to="848727039#15"/>
    <trip id="veh210" type="car" depart="105.0" from="887054166#0" to="-1306480984"/>
    <trip id="veh211" type="car" depart="105.5" from="27808248#5" to="-817620016"/>
    <trip id="veh212" type="car" depart="106.0" from="889997420" to="-27808248#8"/>
    <trip id="veh213" type="car" depart="106.5" from="848727039#4" to="-801709799#1"/>
    <trip id="veh214" type="car" depart="107.0" from="888474717#3" to="753822243#0"/>
    <trip id="veh215" type="car" depart="107.5" from="-888696112#0" to="887055666#2"/>
    <trip id="veh216" type="car" depart="108.0" from="1308725824#0" to="1306480981"/>
    <trip id="veh217" type="car" depart="108.5" from="-888696116#3" to="-1376446263"/>
    <trip id="veh218" type="car" depart="109.0" from="1376640416" to="-955972047"/>
    <trip id="veh219" type="car" depart="109.5" from="817981377#5" to="1309184317#1"/>
    <trip id="veh220" type="car" depart="110.0" from="-1309989505#0" to="-1306480969"/>
    <trip id="veh221" type="car" depart="110.5" from="-800789135#0" to="-905715082#5"/>
    <trip id="veh222" type="car" depart="111.0" from="-801709802#1" to="-1377352663"/>
    <trip id="veh223" type="car" depart="111.5" from="-1308725829" to="-800789134#1"/>
    <trip id="veh224" type="car" depart="112.0" from="889997417#0" to="1372011600#4"/>
    <trip id="veh225" type="car" depart="112.5" from="801345977#2" to="-848727039#8"/>
    <trip id="veh226" type="car" depart="113.0" from="-849651939" to="1234538085"/>
    <trip id="veh227" type="car" depart="113.5" from="-957060428#2" to="1308725831"/>
    <trip id="veh228" type="car" depart="114.0" from="-817303364#1" to="-800789136#1"/>
    <trip id="veh229" type="car" depart="114.5" from="1306480982" to="-1306480963"/>
    <trip id="veh230" type="car" depart="115.0" from="-747493590#1" to="800019462"/>
    <trip id="veh231" type="car" depart="115.5" from="956072861" to="1372011600#0"/>
    <trip id="veh232" type="car" depart="116.0" from="-957873329" to="539179122#4"/>
    <trip id="veh233" type="car" depart="116.5" from="-800789143" to="-817981377#2"/>
    <trip id="veh234" type="car" depart="117.0" from="1306480972#1" to="849652290#0"/>
    <trip id="veh235" type="car" depart="117.5" from="1376428293" to="-842086983"/>
    <trip id="veh236" type="car" depart="118.0" from="539178239#2" to="1309184324#1"/>
    <trip id="veh237" type="car" depart="118.5" from="801709803#1" to="1263672512#2"/>
    <trip id="veh238" type="car" depart="119.0" from="27808248#3" to="27814526#1"/>
    <trip id="veh239" type="car" depart="119.5" from="817981377#4" to="-1376441507"/>
    <trip id="veh240" type="car" depart="120.0" from="31857931#1" to="984695380"/>
    <trip id="veh241" type="car" depart="120.5" from="-957060428#2" to="-1309184323#0"/>
    <trip id="veh242" type="car" depart="121.0" from="27808248#8" to="-1309184323#0"/>
    <trip id="veh243" type="car" depart="121.5" from="1309184317#1" to="539178239#3"/>
    <trip id="veh244" type="car" depart="122.0" from="-1309184332" to="539178050#0"/>
    <trip id="veh245" type="car" depart="122.5" from="-891239423" to="-817981377#15"/>
    <trip id="veh246" type="car" depart="123.0" from="-251819185#11" to="800789135#1"/>
    <trip id="veh247" type="car" depart="123.5" from="852882801#0" to="548373984#6"/>
    <trip id="veh248" type="car" depart="124.0" from="-762834594#0" to="-849424259#1"/>
    <trip id="veh249" type="car" depart="124.5" from="-1308725824#1" to="1234538087#0"/>
    <trip id="veh250" type="car" depart="125.0" from="-1308725835" to="-848727039#14"/>
    <trip id="veh251" type="car" depart="125.5" from="958131188" to="888474710"/>
    <trip id="veh252" type="car" depart="126.0" from="539178239#0" to="-251819185#1"/>
    <trip id="veh253" type="car" depart="126.5" from="-753822243#1" to="-957057618"/>
    <trip id="veh254" type="car" depart="127.0" from="-1306480972#2" to="-747493592#1"/>
    <trip id="veh255" type="car" depart="127.5" from="31857931#1" to="-957914106"/>
    <trip id="veh256" type="car" depart="128.0" from="-846729370" to="-44634825#0"/>
    <trip id="veh257" type="car" depart="128.5" from="842128447#0" to="-955975125"/>
    <trip id="veh258" type="car" depart="129.0" from="1306480972#3" to="817620016"/>
    <trip id="veh259" type="car" depart="129.5" from="-955973497" to="-1252047658#2"/>
    <trip id="veh260" type="car" depart="130.0" from="-842128447#4" to="-801345978#2"/>
    <trip id="veh261" type="car" depart="130.5" from="801345981" to="852882801#1"/>
    <trip id="veh262" type="car" depart="131.0" from="-450700266#1" to="-842128447#2"/>
    <trip id="veh263" type="car" depart="131.5" from="549646943#2" to="-251819185#11"/>
    <trip id="veh264" type="car" depart="132.0" from="-531663745#0" to="958130511"/>
    <trip id="veh265" type="car" depart="132.5" from="539178239#1" to="-23314618#3"/>
    <trip id="veh266" type="car" depart="133.0" from="-957060887" to="-817981377#11"/>
    <trip id="veh267" type="car" depart="133.5" from="817981377#3" to="-1376428296"/>
    <trip id="veh268" type="car" depart="134.0" from="-891239422" to="747493593#0"/>
    <trip id="veh269" type="car" depart="134.5" from="1376428299" to="859009059#1"/>
    <trip id="veh270" type="car" depart="135.0" from="-44634825#2" to="-1309989510"/>
    <trip id="veh271" type="car" depart="135.5" from="23314618#3" to="-1309184332"/>
    <trip id="veh272" type="car" depart="136.0" from="-251819185#11" to="1376441514"/>
    <trip id="veh273" type="car" depart="136.5" from="801345978#3" to="1309989509"/>
    <trip id="veh274" type="car" depart="137.0" from="817981377#8" to="-890002798#2"/>
    <trip id="veh275" type="car" depart="137.5" from="955972049" to="-1263672512#0"/>
    <trip id="veh276" type="car" depart="138.0" from="-1306480977" to="1309989512"/>
    <trip id="veh277" type="car" depart="138.5" from="801709799#1" to="1376441514"/>
    <trip id="veh278" type="car" depart="139.0" from="1309184333" to="-849651939"/>
    <trip id="veh279" type="car" depart="139.5" from="-1309989507#0" to="-31857931#0"/>
    <trip id="veh280" type="car" depart="140.0" from="1372011600#7" to="800789137"/>
    <trip id="veh281" type="car" depart="140.5" from="-753822243#1" to="-801345976#1"/>
    <trip id="veh282" type="car" depart="141.0" from="-1376428294#0" to="889997417#1"/>
    <trip id="veh283" type="car" depart="141.5" from="539178239#1" to="800789141#2"/>
    <trip id="veh284" type="car" depart="142.0" from="-1372011600#6" to="957060428#1"/>
    <trip id="veh285" type="car" depart="142.5" from="-345394632" to="1306480973"/>
    <trip id="veh286" type="car" depart="143.0" from="-889997418#0" to="888474711#2"/>
    <trip id="veh287" type="car" depart="143.5" from="31857931#7" to="747493598#2"/>
    <trip id="veh288" type="car" depart="144.0" from="762834594#1" to="-762834594#1"/>
    <trip id="veh289" type="car" depart="144.5" from="-1309184322" to="1309184327"/>
    <trip id="veh290" type="car" depart="145.0" from="-801345978#2" to="-889997417#1"/>
    <trip id="veh291" type="car" depart="145.5" from="-817981377#16" to="-44634825#2"/>
    <trip id="veh292" type="car" depart="146.0" from="801345976#2" to="887055669#0"/>
    <trip id="veh293" type="car" depart="146.5" from="-1306480968" to="1309184329"/>
    <trip id="veh294" type="car" depart="147.0" from="800789139#0" to="31547645#1"/>
    <trip id="veh295" type="car" depart="147.5" from="889997418#1" to="345394631#1"/>
    <trip id="veh296" type="car" depart="148.0" from="817981377#16" to="-801345977#1"/>
    <trip id="veh297" type="car" depart="148.5" from="539179122#1" to="-763020805#3"/>
    <trip id="veh298" type="car" depart="149.0" from="-345394631#2" to="957914106"/>
    <trip id="veh299" type="car" depart="149.5" from="-905715082#0" to="-1308725822"/>
    <trip id="veh300" type="car" depart="150.0" from="-539179122#6" to="-747493592#3"/>
    <trip id="veh301" type="car" depart="150.5" from="-1376640417" to="-887055669#0"/>
    <trip id="veh302" type="car" depart="151.0" from="801709801" to="-888696113"/>
    <trip id="veh303" type="car" depart="151.5" from="-957053245#2" to="-747493591"/>
    <trip id="veh304" type="car" depart="152.0" from="-747493593#0" to="1309184334"/>
    <trip id="veh305" type="car" depart="152.5" from="-698537399#0" to="891239422"/>
    <trip id="veh306" type="car" depart="153.0" from="1376640416" to="852882801#1"/>
    <trip id="veh307" type="car" depart="153.5" from="-763023786" to="-1309184324#0"/>
    <trip id="veh308" type="car" depart="154.0" from="-955972050" to="-747493593#1"/>
    <trip id="veh309" type="car" depart="154.5" from="-1372011600#6" to="958997683"/>
    <trip id="veh310" type="car" depart="155.0" from="1376441507" to="846728951#0"/>
    <trip id="veh311" type="car" depart="155.5" from="1309184316#0" to="188412271#2"/>
    <trip id="veh312" type="car" depart="156.0" from="1309184319#2" to="548373984#1"/>
    <trip id="veh313" type="car" depart="156.5" from="450700266#4" to="1376446260"/>
    <trip id="veh314" type="car" depart="157.0" from="-1309184318#3" to="-1308725823"/>
    <trip id="veh315" type="car" depart="157.5" from="846729108" to="-905715082#0"/>
    <trip id="veh316" type="car" depart="158.0" from="698537399#0" to="801709799#4"/>
    <trip id="veh317" type="car" depart="158.5" from="-23314618#3" to="-958758864"/>
    <trip id="veh318" type="car" depart="159.0" from="-817981377#7" to="-251819185#1"/>
    <trip id="veh319" type="car" depart="159.5" from="801709799#3" to="31547645#1"/>
    <trip id="veh320" type="car" depart="160.0" from="-887055666#3" to="-800789133#0"/>
    <trip id="veh321" type="car" depart="160.5" from="902574752" to="800789134#0"/>
    <trip id="veh322" type="car" depart="161.0" from="-852882801#0" to="955972050"/>
    <trip id="veh323" type="car" depart="161.5" from="801345980" to="801834554#1"/>
    <trip id="veh324" type="car" depart="162.0" from="-1309184317#0" to="-1376441507"/>
    <trip id="veh325" type="car" depart="162.5" from="763020554" to="-450700266#5"/>
    <trip id="veh326" type="car" depart="163.0" from="-345394632" to="-1306480971"/>
    <trip id="veh327" type="car" depart="163.5" from="-957060428#2" to="-763020805#5"/>
    <trip id="veh328" type="car" depart="164.0" from="-800789138#1" to="-817981377#5"/>
    <trip id="veh329" type="car" depart="164.5" from="-1306480966#2" to="-800789139#0"/>
    <trip id="veh330" type="car" depart="165.0" from="-1309184323#2" to="-1309184324#1"/>
    <trip id="veh331" type="car" depart="165.5" from="-800789134#0" to="801345976#1"/>
    <trip id="veh332" type="car" depart="166.0" from="-888474717#3" to="835923222#2"/>
    <trip id="veh333" type="car" depart="166.5" from="1376640416" to="-817981377#9"/>
    <trip id="veh334" type="car" depart="167.0" from="958130511" to="-800789134#2"/>
    <trip id="veh335" type="car" depart="167.5" from="-835923222#0" to="23314618#0"/>
    <trip id="veh336" type="car" depart="168.0" from="905715082#4" to="747493592#0"/>
    <trip id="veh337" type="car" depart="168.5" from="-905715082#2" to="-957052483"/>
    <trip id="veh338" type="car" depart="169.0" from="1309989511#0" to="-853719671#1"/>
    <trip id="veh339" type="car" depart="169.5" from="889997418#0" to="539178239#4"/>
    <trip id="veh340" type="car" depart="170.0" from="-817981377#4" to="-800789141#2"/>
    <trip id="veh341" type="car" depart="170.5" from="817981377#10" to="763018290"/>
    <trip id="veh342" type="car" depart="171.0" from="1306480983" to="-1309989509"/>
    <trip id="veh343" type="car" depart="171.5" from="1372009227" to="846728951#1"/>
    <trip id="veh344" type="car" depart="172.0" from="-852882801#1" to="1376441514"/>
    <trip id="veh345" type="car" depart="172.5" from="1376428293" to="-1306480970"/>
    <trip id="veh346" type="car" depart="173.0" from="1309989505#0" to="-1263672512#3"/>
    <trip id="veh347" type="car" depart="173.5" from="-957052483" to="-597693449#2"/>
    <trip id="veh348" type="car" depart="174.0" from="-1372246172" to="889997417#1"/>
    <trip id="veh349" type="car" depart="174.5" from="-801345980" to="1234538085"/>