<?xml version="1.0" encoding="UTF-8"?>

<!-- generated on 2026-03-17 23:06:24 by Eclipse SUMO duarouter Version 1.24.0
<duarouterConfiguration xmlns:xsi="http://www.w3.org/2001/XMLSchema-instance" xsi:noNamespaceSchemaLocation="http://sumo.dlr.de/xsd/duarouterConfiguration.xsd">

    <input>
        <net-file value="best_map.net.xml"/>
        <route-files value="raw_trips.trips.xml"/>
    </input>

    <output>
        <output-file value="simulation_optimized.rou.xml"/>
    </output>

    <report>
        <no-warnings value="true"/>
        <ignore-errors value="true"/>
        <no-step-log value="true"/>
    </report>

</duarouterConfiguration>
-->

<routes xmlns:xsi="http://www.w3.org/2001/XMLSchema-instance" xsi:noNamespaceSchemaLocation="http://sumo.dlr.de/xsd/routes_file.xsd">
    <vType id="car" length="5.00" maxSpeed="50.00" accel="2.6" decel="4.5" sigma="0.5"/>
    <vehicle id="veh0" type="car" depart="0.00">
        <route edges="1372011600#1 1372011600#2 1372011600#3 1372011600#4 1372011600#5 1372011600#6 1372011600#7 956221994 817981377#8 -698537399#1 888696116#0 888696116#1 888696116#2 888696116#3 888696116#4 -27814526#0 -23314618#7 -23314618#6 842128447#0 842128447#1 842128447#2 842128447#3 -1376428299 -1376428300 -1309184324#1"/>
    </vehicle>
    <vehicle id="veh1" type="car" depart="0.50">
        <route edges="797906748#0 797906748#1 -801345981 -801345980 -801345976#1 -801345976#0 -27808248#1 -27808248#0 -905715082#5 -905715082#4 -905715082#3 -905715082#2 -905715082#1 -905715082#0 1252014848 -1263672512#3 -1263672512#2 -1263672512#1 -1263672512#0 27814526#0 27814526#1 27814526#2 -1309184314 1309184314"/>
    </vehicle>
    <vehicle id="veh2" type="car" depart="1.00">
        <route edges="-846228371#2 -846228371#1 -846228371#0 -848727039#3 -848727039#2 -848727039#1 -848727039#0 -1252047658#2 -1252047658#1 -1252047658#0 905715082#0 905715082#1 905715082#2 905715082#3 905715082#4 905715082#5 -44634825#12 -44634825#11 -44634825#10 -44634825#9"/>
    </vehicle>
    <vehicle id="veh3" type="car" depart="1.50">
        <route edges="801345977#2 -801345977#2 -801345977#1 -801345977#0 -44634825#10 -44634825#9 -44634825#8 842086983 -820874825#0 -820874824 -531663745#2 539202878 -539202878"/>
    </vehicle>
    <vehicle id="veh4" type="car" depart="2.00">
        <route edges="957060887 -762834594#1 -762834594#0 -905715082#1 -905715082#0 1252047658#0 1252047658#1 1252047658#2 817981377#0 817981377#1 817981377#2 817981377#3 -817981377#3"/>
    </vehicle>
    <vehicle id="veh5" type="car" depart="2.50">
        <route edges="-31857931#4 -31857931#3 -31857931#2 -31857931#1 -31857931#0 -848727039#12 -597693449#3 -597693449#2 -597693449#1 -597693449#0 1372011600#0 1372011600#1 1372011600#2 1372011600#3 1372011600#4 1372011600#5 1372011600#6 1372011600#7 956221994 817981377#8 817981377#9 817981377#10 817981377#11 817981377#12 -345394631#4 888474709 -888474709"/>
    </vehicle>
    <vehicle id="veh6" type="car" depart="3.00">
        <route edges="539178239#5 -539178239#5 -539178239#4 -539178239#3 -539178239#2 -846228371#2 -846228371#1 -846228371#0"/>
    </vehicle>
    <vehicle id="veh7" type="car" depart="3.50">
        <route edges="817981377#14 -817981377#14 -817981377#13 -817981377#12 -817981377#11 -817981377#10 -817981377#9 -817981377#8 -817981377#7"/>
    </vehicle>
    <vehicle id="veh8" type="car" depart="4.00">
        <route edges="888696116#2 -888696116#2 -888696116#1 -888696116#0 698537399#1 -817981377#8 -956221994 -1372011600#7 -1372011600#6 -1372011600#5 -1372011600#4 -1372011600#3 -1372011600#2 -1372011600#1 -1372011600#0 597693449#0 597693449#1 597693449#2 597693449#3 848727039#12 848727039#13 848727039#14 848727039#15 819032411#0 -958131016"/>
    </vehicle>
    <vehicle id="veh9" type="car" depart="4.50">
        <route edges="1306480965#1 -1306480965#1 -887054166#3 -887054166#2 -887054166#1 -887054166#0 -1372011600#0 597693449#0 597693449#1 597693449#2 597693449#3 848727039#12 31857931#0 31857931#1 31857931#2 31857931#3 31857931#4 31857931#5 31857931#6 31857931#7 31857931#8 31857931#9 -800789146 -800789135#1 -800789135#0 27808248#9 27808248#10 852882800 852882801#0 852882801#1 852882801#2 852882801#3 852882801#4 549646943#0 797906748#0 797906748#1 -801345981"/>
    </vehicle>
    <vehicle id="veh10" type="car" depart="5.00">
        <route edges="888474717#1 1376446263 1376446262 1308725828#0 1309989511#0 1309989511#1 1376446261 1376446260 44634825#5 44634825#6 44634825#7 44634825#8 44634825#9 44634825#10 801345977#0 801345977#1 801345977#2 801345976#1 801345980 801345981 -797906748#1 -797906748#0 549646943#1"/>
    </vehicle>
    <vehicle id="veh11" type="car" depart="5.50">
        <route edges="958130095 -958130095 -888696116#0 698537399#1 -817981377#8 -763020805#5 -763020805#4 -763020805#3 -763020805#2 -763020805#1"/>
    </vehicle>
    <vehicle id="veh12" type="car" depart="6.00">
        <route edges="-842128447#1 -842128447#0 23314618#6 23314618#7 1263672512#0 1263672512#1 1263672512#2 1263672512#3 -1252014848 1252047658#0 1252047658#1 -1252047658#1"/>
    </vehicle>
    <vehicle id="veh13" type="car" depart="6.50">
        <route edges="539179122#4 539179122#5 539179122#6 539179122#7 539179122#8 -251819185#3 -251819185#2 -251819185#1 -251819185#0 -1252014848 1252047658#0 1252047658#1 1252047658#2 817981377#0 817981377#1 817981377#2 817981377#3 817981377#4 817981377#5 817981377#6 698537399#0 698537399#1 817981377#9 817981377#10 817981377#11 817981377#12 817981377#13 817981377#14 1306480983 1306480984 763023786 -958340133"/>
    </vehicle>
    <vehicle id="veh14" type="car" depart="7.00">
        <route edges="763019962#1 -763019962#1 -763019962#0 -848727039#1 -848727039#0 -1252047658#2 -1252047658#1 -1252047658#0 1252014848 251819185#0 251819185#1 853719671#0 1308725824#0 -1308725824#0"/>
    </vehicle>
    <vehicle id="veh15" type="car" depart="7.50">
        <route edges="-817981377#5 -817981377#4 -817981377#3 -817981377#2 957052483 848727039#1 848727039#2 848727039#3 848727039#4 848727039#5 888474711#0 888474711#1 888474711#2 887055668"/>
    </vehicle>
    <vehicle id="veh16" type="car" depart="8.00">
        <route edges="-846228371#0 -848727039#3 -848727039#2 -848727039#1 -848727039#0 -1252047658#2 -1252047658#1 -1252047658#0 1252014848 251819185#0 251819185#1 251819185#2 251819185#3 251819185#4 251819185#5 251819185#6 -1309184323#2 -1309184323#1 1309184324#0 1309184324#1 1376428300"/>
    </vehicle>
    <vehicle id="veh17" type="car" depart="8.50">
        <route edges="539178239#1 -539178239#1 -539178239#0 539178168#2 450700266#3 450700266#4 450700266#5 450700266#6 -1252047658#0 905715082#0 905715082#1 905715082#2 905715082#3 905715082#4 905715082#5 -44634825#12 -44634825#11 -44634825#10 -44634825#9 -44634825#8 -44634825#7 -44634825#6 -44634825#5 -44634825#4 888474717#0 1309989514 1309989512"/>
    </vehicle>
    <vehicle id="veh18" type="car" depart="9.00">
        <route edges="887055667 -887055667 -887055666#0 -848727039#9 -848727039#8 -848727039#7 -848727039#6 -848727039#5 -848727039#4 -848727039#3 -848727039#2 -848727039#1 -957052483 817981377#2 817981377#3 817981377#4 817981377#5 817981377#6 817981377#7"/>
    </vehicle>
    <vehicle id="veh20" type="car" depart="10.00">
        <route edges="-801834632 801834632 -801834554#1 -801834554#0 -251819185#4 -251819185#3 -251819185#2 -251819185#1 -251819185#0 -1252014848 1252047658#0 -450700266#6 -450700266#5"/>
    </vehicle>
    <vehicle id="veh21" type="car" depart="10.50">
        <route edges="-1309184316#1 -1309184316#0 23314618#7 27814526#0 -888696116#4 -888696116#3 -888696116#2 -888696116#1 -888696116#0 -698537399#0 -817981377#6 -817981377#5"/>
    </vehicle>
    <vehicle id="veh22" type="car" depart="11.00">
        <route edges="1263672512#2 1263672512#3 -1252014848 1252047658#0 1252047658#1 1252047658#2 848727039#0 848727039#1 848727039#2 848727039#3 848727039#4 848727039#5 848727039#6 848727039#7 848727039#8 848727039#9 848727039#10 848727039#11 -597693449#3 -597693449#2 -1306480974 -1306480977 -1306480978"/>
    </vehicle>
    <vehicle id="veh23" type="car" depart="11.50">
        <route edges="747493602#0 -747493602#0 23314618#4 23314618#5 23314618#6 23314618#7 27814526#0 -888696116#4 -888696116#3 -888696116#2 -888696116#1 -888696116#0 698537399#1 -817981377#8 -956221994 -1372011600#7 -1372011600#6 -1372011600#5 -1372011600#4 -1372011600#3 -1372011600#2 -1372011600#1 1372011600#1"/>
    </vehicle>
    <vehicle id="veh24" type="car" depart="12.00">
        <route edges="-801345980 -801345976#1 -801345977#2 -801345977#1 -801345977#0 -44634825#10 -44634825#9 -44634825#8 -44634825#7 -44634825#6 -44634825#5 -44634825#4 888474717#0 888474717#1 1376446263 1376446262 1308725828#0"/>
    </vehicle>
    <vehicle id="veh25" type="car" depart="12.50">
        <route edges="31857931#10 -31857931#10 -31857931#9 -31857931#8 -31857931#7 -31857931#6 -31857931#5 -31857931#4 -31857931#3 -31857931#2 -31857931#1 -31857931#0 -848727039#12 -848727039#11 -848727039#10 -848727039#9 -848727039#8 -848727039#7 -848727039#6 -848727039#5 -848727039#4 -848727039#3 -848727039#2 -848727039#1 -848727039#0 -1252047658#2 -1252047658#1 -1252047658#0 1252014848 251819185#0 251819185#1 251819185#2 251819185#3 251819185#4 251819185#5 251819185#6 251819185#7 549989179 902574752 902574751#0 -957914106"/>
    </vehicle>
    <vehicle id="veh26" type="car" depart="13.00">
        <route edges="-1309221437 -1309221438 -1309221439 -1306480972#0 -1372009228 -1372009227 -1376441514 -848727039#8 -848727039#7 -848727039#6 -848727039#5"/>
    </vehicle>
    <vehicle id="veh27" type="car" depart="13.50">
        <route edges="-539178239#0 539178168#2 450700266#3 450700266#4 450700266#5 450700266#6 1252047658#1 1252047658#2 817981377#0 817981377#1 817981377#2 817981377#3 817981377#4 817981377#5 817981377#6 698537399#0 698537399#1 817981377#9 817981377#10"/>
    </vehicle>
    <vehicle id="veh28" type="car" depart="14.00">
        <route edges="-955972049 -955972048 -955972050 -955972047 188412271#1 188412271#2 -251819185#12 -251819185#11 -251819185#10 -251819185#9 -251819185#8 -251819185#7 -251819185#6 -251819185#5 -251819185#4 -251819185#3 -251819185#2 -251819185#1 -251819185#0 -1252014848 1252047658#0 1252047658#1 1252047658#2 848727039#0 848727039#1 848727039#2 848727039#3 848727039#4 848727039#5"/>
    </vehicle>
    <vehicle id="veh29" type="car" depart="14.50">
        <route edges="-797906748#1 -797906748#0 -549646943#0 -852882801#4 -852882801#3 -852882801#2 -852882801#1 -852882801#0 -852882800 -27808248#10 -27808248#9 800789135#0 800789135#1 800789146 -31857931#9 -31857931#8 -31857931#7 -31857931#6 -31857931#5 -31857931#4 -31857931#3 -31857931#2 -31857931#1 -31857931#0 -848727039#12 -597693449#3 -597693449#2 -597693449#1 -597693449#0 -548373984#7 -548373984#6 -1306480979 -1306480980"/>
    </vehicle>
    <vehicle id="veh30" type="car" depart="15.00">
        <route edges="-23314618#3 23314618#3 23314618#4 23314618#5 23314618#6 23314618#7 27814526#0 -888696116#4 -888696116#3 -888696116#2 -888696116#1 -888696116#0 698537399#1 -817981377#8 -956221994 -1372011600#7 -1372011600#6 -1372011600#5 -1372011600#4 -1372011600#3 -1372011600#2 -1372011600#1 -1372011600#0"/>
    </vehicle>
    <vehicle id="veh31" type="car" depart="15.50">
        <route edges="-817981377#14 -817981377#13 -817981377#12 -817981377#11 -817981377#10 -817981377#9 -698537399#1 -698537399#0 -817981377#6 -817981377#5 -817981377#4 -817981377#3 -817981377#2 -817981377#1 -817981377#0 -1252047658#2 -1252047658#1 -1252047658#0 905715082#0 905715082#1 905715082#2 905715082#3 905715082#4 905715082#5 -44634825#12 -44634825#11 44634825#11"/>
    </vehicle>
    <vehicle id="veh32" type="car" depart="16.00">
        <route edges="27814526#5 -27814526#5 -345394632 345394631#1 345394631#2 345394631#3 345394631#4 817981377#13 -1376441511 1376441511"/>
    </vehicle>
    <vehicle id="veh34" type="car" depart="17.00">
        <route edges="-846728951#2 -1377352663 -1308725828#1 1309989511#0 1309989511#1 1376446261 1376446260 44634825#5 44634825#6 44634825#7 44634825#8 44634825#9 44634825#10 801345977#0 801345977#1 801345977#2 801345976#1 801345980 801345981 -797906748#1 -797906748#0 -549646943#0"/>
    </vehicle>
    <vehicle id="veh35" type="car" depart="17.50">
        <route edges="531663745#2 820874824 820874825#0 -842086983 44634825#8 44634825#9 44634825#10 44634825#11 44634825#12 -905715082#5 -905715082#4 -905715082#3 -905715082#2 -905715082#1 -905715082#0 1252014848 -1263672512#3"/>
    </vehicle>
    <vehicle id="veh36" type="car" depart="18.00">
        <route edges="-852882801#2 -852882801#1 -852882801#0 -852882800 -27808248#10 -27808248#9 800789135#0 800789135#1 800789146 -31857931#9 -31857931#8 -31857931#7 -31857931#6 -31857931#5 -31857931#4 -31857931#3 -31857931#2 -887055669#2 -887055669#1 -887055669#0 -539178239#5"/>
    </vehicle>
    <vehicle id="veh37" type="car" depart="18.50">
        <route edges="1309184315 -1309184315 23314618#3 23314618#4 23314618#5 23314618#6 23314618#7 1263672512#0 1263672512#1 1263672512#2 1263672512#3 -1252014848 905715082#0 905715082#1 905715082#2 905715082#3 905715082#4 905715082#5 -44634825#12 -44634825#11 -44634825#10 -44634825#9 -44634825#8"/>
    </vehicle>
    <vehicle id="veh38" type="car" depart="19.00">
        <route edges="-1308725824#0 853719671#1 -957059243 -539179122#7 -539179122#6 -539179122#5 889997420 801709802#1 801709802#2 801709802#3 -801709802#3"/>
    </vehicle>
    <vehicle id="veh39" type="car" depart="19.50">
        <route edges="548373984#5 548373984#6 548373984#7 597693449#0 597693449#1 597693449#2 597693449#3 -848727039#11 -848727039#10 -848727039#9 -848727039#8 -848727039#7 -848727039#6 -848727039#5 -848727039#4 -848727039#3 -848727039#2 -848727039#1 -848727039#0 -1252047658#2 -1252047658#1 -1252047658#0 1252014848 251819185#0 251819185#1 251819185#2 251819185#3 251819185#4 251819185#5 251819185#6 251819185#7 251819185#8 251819185#9 -801709803#1 -1376640427#0"/>
    </vehicle>
    <vehicle id="veh40" type="car" depart="20.00">
        <route edges="763018290 -905715082#0 1252047658#0 -450700266#6 -450700266#5 -450700266#4 -450700266#3 -450700266#2 -450700266#1 -450700266#0 1320330289"/>
    </vehicle>
    <vehicle id="veh41" type="car" depart="20.50">
        <route edges="801709800#1 44634825#10 44634825#11 44634825#12 -905715082#5 -905715082#4 -905715082#3 -905715082#2 -905715082#1 -905715082#0 1252014848 -1263672512#3 -1263672512#2 -1263672512#1 -1263672512#0 -23314618#7 -23314618#6 -23314618#5 -23314618#4 747493602#0 -888696112#1"/>
    </vehicle>
    <vehicle id="veh42" type="car" depart="21.00">
        <route edges="-1306480977 -1306480978 -1306480972#1 -1306480972#0 -1372009228 -1372009227 -1376441514 -848727039#8 -848727039#7 -848727039#6 -848727039#5 -848727039#4 -848727039#3 -848727039#2 -848727039#1 -848727039#0 -1252047658#2 -1252047658#1 -1252047658#0 905715082#0 905715082#1 905715082#2 905715082#3 905715082#4 905715082#5 -44634825#12 -44634825#11 -44634825#10 -44634825#9 -44634825#8 842086983 820874825#1 820874825#2 820874825#3 -820874825#3"/>
    </vehicle>
    <vehicle id="veh43" type="car" depart="21.50">
        <route edges="-801709799#0 44634825#12 -905715082#5 -905715082#4 -905715082#3 -905715082#2 -905715082#1 -905715082#0 1252047658#0 1252047658#1 1252047658#2 848727039#0 848727039#1 848727039#2 848727039#3 848727039#4 848727039#5 848727039#6 848727039#7 763020805#0 763020805#1 763020805#2"/>
    </vehicle>
    <vehicle id="veh44" type="car" depart="22.00">
        <route edges="-1263672512#0 27814526#0 -888696116#4 -888696116#3 -888696116#2 -888696116#1 -888696116#0 698537399#1 817981377#9 817981377#10 817981377#11 817981377#12 -345394631#4 -345394631#3 602111419"/>
    </vehicle>
    <vehicle id="veh45" type="car" depart="22.50">
        <route edges="-753822886#3 -753822886#2 -753822886#1 -753822886#0 -817981377#9 -817981377#8 -956221994 -1372011600#7 -1372011600#6 -1372011600#5 -1372011600#4 -1372011600#3 -1372011600#2 -1372011600#1 -1372011600#0 -548373984#7 -548373984#6 -548373984#5 -548373984#4 891165121#0 891165121#1 753822243#1 -753822243#1"/>
    </vehicle>
    <vehicle id="veh46" type="car" depart="23.00">
        <route edges="-539178239#1 -539178239#0 539178168#2 450700266#3 450700266#4 450700266#5 450700266#6 -1252047658#0 1252014848 251819185#0 251819185#1 251819185#2 251819185#3 251819185#4 251819185#5 251819185#6 251819185#7 251819185#8 251819185#9 251819185#10 251819185#11 251819185#12 -188412271#2 -188412271#1"/>
    </vehicle>
    <vehicle id="veh47" type="car" depart="23.50">
        <route edges="539179122#0 -539179122#0 -905715082#2 -905715082#1 -905715082#0 1252047658#0 1252047658#1 1252047658#2 817981377#0 817981377#1 817981377#2 817981377#3 817981377#4 817981377#5 817981377#6 817981377#7 -956221994 -1372011600#7 -1372011600#6 -1372011600#5 -1306480966#2 -1306480966#1 -1306480966#0 1306480966#0"/>
    </vehicle>
    <vehicle id="veh48" type="car" depart="24.00">
        <route edges="-955972047 188412271#1 188412271#2 -251819185#12 -251819185#11 -251819185#10 -251819185#9 -251819185#8 -251819185#7 -251819185#6 -251819185#5 -251819185#4 -251819185#3 -251819185#2 -251819185#1 -251819185#0 -1252014848 1252047658#0 1252047658#1 1252047658#2 848727039#0 848727039#1 848727039#2 848727039#3 848727039#4 848727039#5 848727039#6 848727039#7 848727039#8 848727039#9 848727039#10 848727039#11 -597693449#3 -597693449#2 -597693449#1 -597693449#0 -548373984#7 -548373984#6 -1306480979 -1306480980 -1306480981 -1306480982"/>
    </vehicle>
    <vehicle id="veh50" type="car" depart="25.00">
        <route edges="-1376441511 1376441511 -817981377#13 -817981377#12 -817981377#11 -817981377#10 -817981377#9 -698537399#1 -698537399#0 -817981377#6 -817981377#5 -817981377#4 -817981377#3 -817981377#2 -817981377#1 -817981377#0 -1252047658#2 -1252047658#1 -1252047658#0 905715082#0 905715082#1 905715082#2 905715082#3 905715082#4 905715082#5 -44634825#12 -44634825#11 -44634825#10 -44634825#9 -44634825#8 -44634825#7 -44634825#6 -44634825#5 -44634825#4 888474717#0 1309989514 1309989512 1309989513 1309989511#1 1376446261"/>
    </vehicle>
    <vehicle id="veh51" type="car" depart="25.50">
        <route edges="-801709799#1 -762834595 -905715082#4 -905715082#3 -905715082#2 -905715082#1 -905715082#0 1252047658#0 1252047658#1 1252047658#2 817981377#0 817981377#1 817981377#2 817981377#3 817981377#4 817981377#5 817981377#6 698537399#0 698537399#1 817981377#9 817981377#10 817981377#11 817981377#12 817981377#13 -817981377#13"/>
    </vehicle>
    <vehicle id="veh52" type="car" depart="26.00">
        <route edges="888696114 747493590#2 -27814526#1 -27814526#0 -23314618#7 -23314618#6 -23314618#5 -23314618#4 23314618#4"/>
    </vehicle>
    <vehicle id="veh53" type="car" depart="26.50">
        <route edges="819032442 -819032442 -848727039#13 -848727039#12 -848727039#11 -848727039#10 -848727039#9 -848727039#8 -848727039#7 -848727039#6 -848727039#5 -848727039#4 -848727039#3 -848727039#2 -848727039#1 -848727039#0 -1252047658#2 -1252047658#1 -1252047658#0 905715082#0 905715082#1 905715082#2 905715082#3 905715082#4 905715082#5 -44634825#12 -44634825#11 801345977#0 801345978#0 801345978#1 801345978#2 801345978#3"/>
    </vehicle>
    <vehicle id="veh54" type="car" depart="27.00">
        <route edges="-44634825#12 44634825#12 -905715082#5 -905715082#4 -905715082#3 -905715082#2 -905715082#1 -905715082#0 1252047658#0 1252047658#1 1252047658#2 848727039#0 848727039#1 848727039#2 848727039#3 848727039#4 848727039#5 848727039#6 848727039#7 848727039#8 848727039#9 848727039#10 848727039#11 -597693449#3 -597693449#2 -597693449#1 -597693449#0 -548373984#7 -548373984#6 -1306480979 -1306480980 -1306480981 -1306480982"/>
    </vehicle>
    <vehicle id="veh56" type="car" depart="28.00">
        <route edges="-597693449#3 -597693449#2 -597693449#1"/>
    </vehicle>
    <vehicle id="veh57" type="car" depart="28.50">
        <route edges="801850531 -801850531 888696112#1 -747493602#0 23314618#4 23314618#5 23314618#6 23314618#7 1263672512#0 1263672512#1 1263672512#2 1263672512#3 -1252014848 1252047658#0 1252047658#1 1252047658#2 848727039#0 848727039#1 848727039#2 848727039#3 848727039#4 848727039#5 848727039#6 848727039#7 848727039#8 1376441514 1372009227 1372009228 1306480972#0 1306480972#1 1306480972#2"/>
    </vehicle>
    <vehicle id="veh58" type="car" depart="29.00">
        <route edges="747493592#1 747493592#2 747493592#3 -890002798#2 -890002798#1 -890002798#0 -849424259#1"/>
    </vehicle>
    <vehicle id="veh59" type="car" depart="29.50">
        <route edges="-801834554#2 -801834554#1 -801834554#0 -251819185#4 -251819185#3 -251819185#2 -251819185#1 763018290 905715082#1 905715082#2 905715082#3 905715082#4 905715082#5 -44634825#12 -44634825#11 -44634825#10 -44634825#9 -44634825#8 842086983 -820874825#0 -888474713"/>
    </vehicle>
    <vehicle id="veh60" type="car" depart="30.00">
        <route edges="-887055666#2 -958757861 848727039#11 848727039#12 31857931#0 31857931#1 31857931#2 31857931#3 31857931#4 31857931#5 31857931#6 31857931#7 31857931#8 31857931#9 31857931#10 -31857931#10"/>
    </vehicle>
    <vehicle id="veh61" type="car" depart="30.50">
        <route edges="1306480974 597693449#2 597693449#3 848727039#12 31857931#0 31857931#1 31857931#2 31857931#3 31857931#4 31857931#5 31857931#6 31857931#7 31857931#8 31857931#9 -800789146 -800789135#1 -800789135#0 27808248#9 27808248#10 852882800 852882801#0 -1234538085 -1234538086 -800789133#1 800789133#1"/>
    </vehicle>
    <vehicle id="veh62" type="car" depart="31.00">
        <route edges="-23314618#5 23314618#5 23314618#6 23314618#7 27814526#0 -888696116#4 -888696116#3 -888696116#2 -888696116#1 -888696116#0 698537399#1 -817981377#8 -956221994 -1372011600#7 -1372011600#6 -1372011600#5 -1306480966#2 1306480966#2"/>
    </vehicle>
    <vehicle id="veh63" type="car" depart="31.50">
        <route edges="-902574751#1 -902574751#0 -902574752 -549989179 -251819185#7 -251819185#6 -251819185#5 -251819185#4 -251819185#3 -251819185#2 -251819185#1 -251819185#0 -1252014848 1252047658#0 1252047658#1 1252047658#2 848727039#0 848727039#1 848727039#2 848727039#3 848727039#4 848727039#5 848727039#6 848727039#7 848727039#8 1376441514 1372009227 1372009228 1306480972#0 1309221439 1309221438 1309221437 -1309221437 -1309221438 -1309221439"/>
    </vehicle>
    <vehicle id="veh64" type="car" depart="32.00">
        <route edges="-1376428294#0 -817981377#11 -817981377#10 -817981377#9 -698537399#1 -698537399#0 -817981377#6 -817981377#5 -817981377#4 -817981377#3 -817981377#2 -817981377#1 -817981377#0 -1252047658#2 -1252047658#1 -450700266#6 -450700266#5 -450700266#4"/>
    </vehicle>
    <vehicle id="veh65" type="car" depart="32.50">
        <route edges="-1308725833 801345978#1 1309989505#0 1309989505#1 1309989505#2"/>
    </vehicle>
    <vehicle id="veh66" type="car" depart="33.00">
        <route edges="-887055666#1 -887055666#0 -848727039#9 -848727039#8 763020805#0 763020805#1 763020805#2 763020805#3 763020805#4 763020805#5 817981377#8 817981377#9 -817981377#9"/>
    </vehicle>
    <vehicle id="veh67" type="car" depart="33.50">
        <route edges="1309221441 -1309221441 1372011600#3 1372011600#4 1372011600#5 1372011600#6 1372011600#7 956221994 -817981377#7 -817981377#6 -817981377#5 -817981377#4 -817981377#3 -817981377#2 -817981377#1 -817981377#0 -1252047658#2 -1252047658#1 -1252047658#0 905715082#0 905715082#1 905715082#2 905715082#3 905715082#4 905715082#5 -44634825#12 -44634825#11 801345977#0 801345978#0 801345978#1 1309989505#0"/>
    </vehicle>
    <vehicle id="veh69" type="car" depart="34.50">
        <route edges="887055669#1 887055669#2 -31857931#1 -31857931#0 -848727039#12 -597693449#3 -597693449#2 -1306480974 -1306480977 -1306480978 1306480972#2"/>
    </vehicle>
    <vehicle id="veh70" type="car" depart="35.00">
        <route edges="-800789143 -800789141#0 800789134#1 800789134#2 -852882801#1 -852882801#0 -852882800 -27808248#10 -27808248#9 -27808248#8 -27808248#7 -27808248#6 -27808248#5 817148277 -1320330289 450700266#0 450700266#1 450700266#2 450700266#3 450700266#4 450700266#5 450700266#6 1252047658#1 1252047658#2 848727039#0 848727039#1 848727039#2 848727039#3 848727039#4 848727039#5 848727039#6 849652450 -888474710 -887055666#4 -1376428296 1376428296"/>
    </vehicle>
    <vehicle id="veh71" type="car" depart="35.50">
        <route edges="800789139#1 -800789139#1 -800789139#0 -800789138#2 -800789138#1 -800789138#0 800789138#0"/>
    </vehicle>
    <vehicle id="veh72" type="car" depart="36.00">
        <route edges="955972050 955972048 955972049 955971668 -955971668 -955972049 -955972048 -955972050 -955972047 188412271#1 188412271#2 -251819185#12 -251819185#11 -251819185#10 -251819185#9 -251819185#8 -251819185#7 -251819185#6 -251819185#5 -251819185#4 -251819185#3 -251819185#2 -251819185#1 -251819185#0 -1252014848 1252047658#0 1252047658#1 1252047658#2 817981377#0 817981377#1 817981377#2 817981377#3 817981377#4 817981377#5 817981377#6 817981377#7 -956221994 -1372011600#7 -1372011600#6 -1372011600#5 -1306480966#2 -1306480966#1 1376441513 -1376441513"/>
    </vehicle>
    <vehicle id="veh73" type="car" depart="36.50">
        <route edges="-852882801#1 -852882801#0 -852882800 -27808248#10 -27808248#9 -27808248#8 -27808248#7 -27808248#6 -27808248#5 817148277 -1320330289 450700266#0 450700266#1 450700266#2 450700266#3 450700266#4 450700266#5 450700266#6 -1252047658#0 1252014848 -1263672512#3 -1263672512#2 -1263672512#1 -1263672512#0 -23314618#7 -23314618#6 -23314618#5 -23314618#4 -23314618#3 -23314618#2"/>
    </vehicle>
    <vehicle id="veh74" type="car" depart="37.00">
        <route edges="-848727039#7 -848727039#6 -848727039#5 -848727039#4 -848727039#3 -848727039#2 -848727039#1 -848727039#0 -1252047658#2 -1252047658#1 -450700266#6 -450700266#5 -450700266#4 -450700266#3 -450700266#2 -450700266#1 -450700266#0 1320330289 -817148277 27808248#5 27808248#6 27808248#7 27808248#8 27808248#9 27808248#10 852882800 852882801#0 852882801#1 852882801#2 852882801#3 852882801#4 549646943#0 549646943#1 -31547645#1"/>
    </vehicle>
    <vehicle id="veh75" type="car" depart="37.50">
        <route edges="800789138#0 800789138#1 800789138#2 800789138#3 -31857931#4 -31857931#3 -31857931#2 -31857931#1 -31857931#0 -848727039#12 -597693449#3 -597693449#2 -597693449#1 -597693449#0 1372011600#0 1372011600#1 1372011600#2 1372011600#3 1372011600#4 1372011600#5 1372011600#6 1372011600#7 956221994 817981377#8 817981377#9 817981377#10 817981377#11 1376428294#0 1376428294#1 1376428294#2 -1376428294#2"/>
    </vehicle>
    <vehicle id="veh76" type="car" depart="38.00">
        <route edges="801834632 -801834554#1 -801834554#0 -251819185#4 -251819185#3 849424259#0 849424259#1 890002798#0 -957057618 957057618"/>
    </vehicle>
    <vehicle id="veh77" type="car" depart="38.50">
        <route edges="-955972049 -955972048 -955972050 -955972047 188412271#1 188412271#2 -251819185#12 -251819185#11 -251819185#10 -251819185#9 -251819185#8 -251819185#7 -251819185#6 -251819185#5 -251819185#4 -251819185#3 -251819185#2 -251819185#1 -251819185#0 -1252014848 1252047658#0 1252047658#1 1252047658#2 848727039#0 848727039#1 848727039#2 848727039#3 956221760"/>
    </vehicle>
    <vehicle id="veh78" type="car" depart="39.00">
        <route edges="345394631#3 345394631#4 -817981377#12 -817981377#11 -817981377#10 -817981377#9 -698537399#1 -698537399#0 -817981377#6 -817981377#5 -817981377#4 -817981377#3 -817981377#2 -817981377#1 -817981377#0 -1252047658#2 -1252047658#1 -1252047658#0 905715082#0 905715082#1 905715082#2 905715082#3 905715082#4 905715082#5 -44634825#12 -44634825#11 801345977#0 801345977#1 817620016"/>
    </vehicle>
    <vehicle id="veh79" type="car" depart="39.50">
        <route edges="956221994 -956221994 -1372011600#7 -1372011600#6 -1372011600#5 -1372011600#4 -1372011600#3 -1372011600#2 -1372011600#1 -1372011600#0 597693449#0 597693449#1 597693449#2 597693449#3 848727039#12 819032413#0 886414852 958758865"/>
    </vehicle>
    <vehicle id="veh80" type="car" depart="40.00">
        <route edges="44634825#12 -44634825#12 -44634825#11 -44634825#10 -801709800#1 -801709800#0"/>
    </vehicle>
    <vehicle id="veh81" type="car" depart="40.50">
        <route edges="-345394632 345394631#1 345394631#2 345394631#3 345394631#4 -817981377#12 -817981377#11 -817981377#10 -817981377#9 -698537399#1 888696116#0 888696116#1 888696116#2 888696116#3 888696116#4 -27814526#0 -23314618#7 -23314618#6 842128447#0 842128447#1 -1309184317#1 1309184318#0 1309184318#1"/>
    </vehicle>
    <vehicle id="veh82" type="car" depart="41.00">
        <route edges="1306480965#1 -1306480965#1 -887054166#3 -887054166#2 -887054166#1 -887054166#0 1372011600#1 1372011600#2 1372011600#3 1372011600#4 1372011600#5 1372011600#6 1372011600#7 956221994 817981377#8 817981377#9 817981377#10 817981377#11 817981377#12 -817981377#12"/>
    </vehicle>
    <vehicle id="veh83" type="car" depart="41.50">
        <route edges="905715082#3 -905715082#3 -905715082#2 -905715082#1 -763018290 251819185#1 251819185#2 251819185#3 251819185#4 251819185#5 251819185#6 251819185#7 251819185#8"/>
    </vehicle>
    <vehicle id="veh84" type="car" depart="42.00">
        <route edges="-888696116#0 -698537399#0 -817981377#6 -817981377#5 -817981377#4 -817981377#3 -817981377#2 -817981377#1 -817981377#0 -1252047658#2"/>
    </vehicle>
    <vehicle id="veh85" type="car" depart="42.50">
        <route edges="957060887 -762834594#1 -762834594#0 -905715082#1 -905715082#0 1252047658#0 1252047658#1 1252047658#2 848727039#0 848727039#1 848727039#2 848727039#3 848727039#4 848727039#5 848727039#6 848727039#7 848727039#8 848727039#9 848727039#10 848727039#11 -597693449#3 -597693449#2 -597693449#1 -1306480973"/>
    </vehicle>
    <vehicle id="veh86" type="car" depart="43.00">